demo/ams_benchmark/UCCase/C2FEN00617/scenario_062/case.raw
0,100.0,33,0,0,60.0
GRID OPTIMIZATION COMPETITION CHALLENGE 2
INPUT DATA FILES ARE RAW JSON CON
1,'ATHENS 1 1',115.0,1,1,1,1,0.99506181,-1.689551,1.1,0.9,1.1,0.9
2,'ATHENS 2 1',115.0,1,1,1,1,0.99710155,-1.952132,1.1,0.9,1.1,0.9
3,'ATHENS 3 1',115.0,1,1,1,1,0.99898237,-2.00726,1.1,0.9,1.1,0.9
4,'FRANKSTON 1',115.0,1,1,1,1,1.00144243,1.098357,1.1,0.9,1.1,0.9
5,'FRANKSTON 2',115.0,1,1,1,1,1.00111985,1.096249,1.1,0.9,1.1,0.9
6,'PALESTINE ~1',115.0,1,1,1,1,0.99915391,0.522284,1.1,0.9,1.1,0.9
7,'PALESTINE ~2',115.0,1,1,1,1,0.99931169,1.015632,1.1,0.9,1.1,0.9
8,'PALESTINE ~3',230.0,1,1,1,1,1.03356874,3.756325,1.1,0.9,1.1,0.9
9,'PALESTINE ~4',115.0,1,1,1,1,1.00036037,2.139887,1.1,0.9,1.1,0.9
10,'PALESTINE ~5',115.0,1,1,1,1,1.00075221,-0.434568,1.1,0.9,1.1,0.9
11,'PALESTINE ~6',115.0,1,1,1,1,1.00883543,0.908516,1.1,0.9,1.1,0.9
12,'PALESTINE ~7',230.0,1,1,1,1,1.03652036,3.37608,1.1,0.9,1.1,0.9
13,'PALESTINE ~8',230.0,1,1,1,1,1.03613138,3.29977,1.1,0.9,1.1,0.9
14,'PALESTINE ~9',115.0,1,1,1,1,1.01490009,1.439165,1.1,0.9,1.1,0.9
15,'BUFFALO 1',115.0,1,1,1,1,1.01099598,-2.139148,1.1,0.9,1.1,0.9
16,'CENTERVILL~1',115.0,1,1,1,1,0.99975485,-2.715988,1.1,0.9,1.1,0.9
17,'CROCKETT 1 1',115.0,1,1,1,1,1.01867294,-2.210562,1.1,0.9,1.1,0.9
18,'CROCKETT 1 2',115.0,1,1,1,1,1.01870275,-2.206708,1.1,0.9,1.1,0.9
19,'CROCKETT 2 1',230.0,1,1,1,1,1.03800642,0.417334,1.1,0.9,1.1,0.9
20,'CROCKETT 2 2',230.0,1,1,1,1,1.03772116,0.373704,1.1,0.9,1.1,0.9
21,'CROCKETT 2 3',115.0,1,1,1,1,1.03155577,-1.10712,1.1,0.9,1.1,0.9
22,'CROCKETT 2 4',230.0,1,1,1,1,1.03844059,0.465056,1.1,0.9,1.1,0.9
23,'ELKHART 1',115.0,1,1,1,1,1.00223351,-0.329329,1.1,0.9,1.1,0.9
24,'FAIRFIELD ~1',115.0,1,1,1,1,1.04427946,3.283533,1.1,0.9,1.1,0.9
25,'FAIRFIELD ~2',115.0,1,1,1,1,1.04295242,3.143464,1.1,0.9,1.1,0.9
26,'GRAPELAND 1',115.0,1,1,1,1,1.00644076,-1.035382,1.1,0.9,1.1,0.9
27,'JEWETT 1',115.0,1,1,1,1,1.02415192,-0.933645,1.1,0.9,1.1,0.9
28,'KENNARD 1',115.0,1,1,1,1,1.02505434,-1.737759,1.1,0.9,1.1,0.9
29,'KENNARD 2',115.0,1,1,1,1,1.02506745,-1.735964,1.1,0.9,1.1,0.9
30,'LOVELADY 1 1',115.0,1,1,1,1,1.01708591,-3.087687,1.1,0.9,1.1,0.9
31,'LOVELADY 2 1',115.0,1,1,1,1,1.01739967,-3.64199,1.1,0.9,1.1,0.9
32,'OAKWOOD 1',115.0,1,1,1,1,1.0113076,-2.337118,1.1,0.9,1.1,0.9
33,'STREETMAN 1',115.0,1,1,1,1,1.04322803,3.004042,1.1,0.9,1.1,0.9
34,'TEAGUE 1',115.0,1,1,1,1,1.04159451,2.780693,1.1,0.9,1.1,0.9
35,'TENNESSEE ~1',115.0,1,1,1,1,1.01340854,-2.39872,1.1,0.9,1.1,0.9
36,'TENNESSEE ~2',115.0,1,1,1,1,1.01228774,-2.415348,1.1,0.9,1.1,0.9
37,'GLEN ROSE 1',230.0,1,1,1,1,1.04302597,2.294486,1.1,0.9,1.1,0.9
38,'GLEN ROSE 2',115.0,1,1,1,1,1.04236758,1.806823,1.1,0.9,1.1,0.9
39,'RIO VISTA 1',115.0,1,1,1,1,1.03708518,2.084952,1.1,0.9,1.1,0.9
40,'COMANCHE 1 1',115.0,1,1,1,1,1.02655208,0.496027,1.1,0.9,1.1,0.9
41,'COMANCHE 1 2',115.0,1,1,1,1,1.02652526,0.493769,1.1,0.9,1.1,0.9
42,'COMANCHE 2 1',115.0,1,1,1,1,1.02486694,0.500607,1.1,0.9,1.1,0.9
43,'COMANCHE 2 2',115.0,1,1,1,1,1.0248853,0.502153,1.1,0.9,1.1,0.9
44,'CROSS PLAI~1',115.0,1,1,1,1,1.01910388,-0.428952,1.1,0.9,1.1,0.9
45,'DE LEON 1',115.0,1,1,1,1,1.02987564,0.604805,1.1,0.9,1.1,0.9
46,'DUBLIN 1 1',115.0,1,1,1,1,1.0380702,1.205299,1.1,0.9,1.1,0.9
47,'DUBLIN 2 1',230.0,1,1,1,1,1.0400002,1.601801,1.1,0.9,1.1,0.9
48,'DUBLIN 2 2',115.0,1,1,1,1,1.03729975,1.166825,1.1,0.9,1.1,0.9
49,'HICO 1',115.0,1,1,1,1,1.03246367,0.934359,1.1,0.9,1.1,0.9
50,'HICO 2',115.0,1,1,1,1,1.03242683,0.931256,1.1,0.9,1.1,0.9
51,'RISING STA~1',115.0,1,1,1,1,1.01791465,-0.009674,1.1,0.9,1.1,0.9
52,'TEMPLE 1 1',115.0,1,1,1,1,1.03494275,-0.415006,1.1,0.9,1.1,0.9
53,'TEMPLE 1 2',115.0,1,1,1,1,1.03489172,-0.422237,1.1,0.9,1.1,0.9
54,'TEMPLE 2 1',115.0,1,1,1,1,1.03514993,-0.192641,1.1,0.9,1.1,0.9
55,'TEMPLE 3 1',115.0,1,1,1,1,1.03481972,-0.372626,1.1,0.9,1.1,0.9
56,'TEMPLE 3 2',115.0,1,1,1,1,1.03479958,-0.375248,1.1,0.9,1.1,0.9
57,'TEMPLE 4 1',115.0,1,1,1,1,1.01277483,-3.688158,1.1,0.9,1.1,0.9
58,'TEMPLE 5 1',115.0,1,1,1,1,1.01333845,-3.582257,1.1,0.9,1.1,0.9
59,'TEMPLE 6 1',115.0,1,1,1,1,1.03177953,1.530062,1.1,0.9,1.1,0.9
60,'TEMPLE 6 2',115.0,1,1,1,1,1.03174984,1.525992,1.1,0.9,1.1,0.9
61,'TEMPLE 7 1',115.0,1,1,1,1,1.01288617,-3.709816,1.1,0.9,1.1,0.9
62,'BELTON 1 1',115.0,1,1,1,1,1.0114876,-2.547824,1.1,0.9,1.1,0.9
63,'BELTON 2 1',230.0,1,1,1,1,1.03251946,1.48565,1.1,0.9,1.1,0.9
64,'BELTON 2 2',115.0,1,1,1,1,1.01963568,-1.482517,1.1,0.9,1.1,0.9
65,'BELTON 3 1',230.0,1,1,1,1,1.03387809,1.592615,1.1,0.9,1.1,0.9
66,'BELTON 3 2',115.0,1,1,1,1,1.01394343,-3.692576,1.1,0.9,1.1,0.9
67,'BELTON 4 1',115.0,1,1,1,1,1.01118696,-2.986051,1.1,0.9,1.1,0.9
68,'CAMERON 1',115.0,1,1,1,1,1.03257537,-1.655765,1.1,0.9,1.1,0.9
69,'GATESVILLE~1',115.0,1,1,1,1,1.02905393,0.571713,1.1,0.9,1.1,0.9
70,'GATESVILLE~2',115.0,1,1,1,1,1.02791941,0.293194,1.1,0.9,1.1,0.9
71,'GATESVILLE~3',230.0,1,1,1,1,1.03345525,1.472455,1.1,0.9,1.1,0.9
72,'GATESVILLE~4',115.0,1,1,1,1,1.03113663,0.875177,1.1,0.9,1.1,0.9
73,'GRANGER 1',115.0,1,1,1,1,1.01331401,-3.218669,1.1,0.9,1.1,0.9
74,'JARRELL 1',115.0,1,1,1,1,1.02617443,-1.288716,1.1,0.9,1.1,0.9
75,'KEMPNER 1 1',115.0,1,1,1,1,1.01276278,0.822832,1.1,0.9,1.1,0.9
76,'KEMPNER 2 1',115.0,1,1,1,1,1.01749396,1.48611,1.1,0.9,1.1,0.9
77,'KILLEEN 1 1',115.0,1,1,1,1,1.00377095,-1.957155,1.1,0.9,1.1,0.9
78,'KILLEEN 2 1',115.0,1,1,1,1,1.00042534,-1.212485,1.1,0.9,1.1,0.9
79,'KILLEEN 3 1',115.0,1,1,1,1,0.99893945,-1.761733,1.1,0.9,1.1,0.9
80,'KILLEEN 4 1',115.0,1,1,1,1,1.00538051,-0.423534,1.1,0.9,1.1,0.9
81,'KILLEEN 5 1',115.0,1,1,1,1,1.00532818,-0.340948,1.1,0.9,1.1,0.9
82,'KILLEEN 6 1',115.0,1,1,1,1,0.99746644,-1.676894,1.1,0.9,1.1,0.9
83,'KILLEEN 7 1',230.0,1,1,1,1,1.03521001,1.952532,1.1,0.9,1.1,0.9
84,'KILLEEN 7 2',230.0,1,1,1,1,1.03479981,1.952615,1.1,0.9,1.1,0.9
85,'KILLEEN 7 3',115.0,1,1,1,1,1.03309691,1.652053,1.1,0.9,1.1,0.9
86,'KILLEEN 7 ~1',115.0,1,1,1,1,1.0330956,1.652053,1.1,0.9,1.1,0.9
87,'KILLEEN 8 1',115.0,1,1,1,1,1.02922106,1.351744,1.1,0.9,1.1,0.9
88,'FORT HOOD ~1',115.0,1,1,1,1,1.00268805,-1.400741,1.1,0.9,1.1,0.9
89,'FORT HOOD ~2',115.0,1,1,1,1,0.99861294,-1.476619,1.1,0.9,1.1,0.9
90,'FORT HOOD ~3',115.0,1,1,1,1,0.99857885,-1.481964,1.1,0.9,1.1,0.9
91,'FORT HOOD ~4',115.0,1,1,1,1,0.99625796,-1.723019,1.1,0.9,1.1,0.9
92,'FORT HOOD ~5',115.0,1,1,1,1,0.99668139,-1.717786,1.1,0.9,1.1,0.9
93,'HARKER HEI~1',115.0,1,1,1,1,1.00822663,-2.509847,1.1,0.9,1.1,0.9
94,'KILLEEN 9 1',115.0,1,1,1,1,1.00506163,-0.439743,1.1,0.9,1.1,0.9
95,'KILLEEN 10 1',115.0,1,1,1,1,1.0049305,-0.871693,1.1,0.9,1.1,0.9
96,'KILLEEN 11 1',115.0,1,1,1,1,1.00611353,-0.411808,1.1,0.9,1.1,0.9
97,'KILLEEN 11 2',115.0,1,1,1,1,1.00619304,-0.405128,1.1,0.9,1.1,0.9
98,'KILLEEN 12 1',230.0,1,1,1,1,1.0296818,3.335205,1.1,0.9,1.1,0.9
99,'KILLEEN 12~1',230.0,1,1,1,1,1.0296818,3.335205,1.1,0.9,1.1,0.9
100,'KILLEEN 12 2',115.0,1,1,1,1,1.00772464,-0.453566,1.1,0.9,1.1,0.9
101,'KILLEEN 12 3',230.0,1,1,1,1,1.02965307,3.330875,1.1,0.9,1.1,0.9
102,'LAMPASAS 1 1',115.0,1,1,1,1,1.0265522,3.916189,1.1,0.9,1.1,0.9
103,'LAMPASAS 2 1',230.0,1,1,1,1,1.03360307,6.493216,1.1,0.9,1.1,0.9
104,'LAMPASAS 2 2',115.0,1,1,1,1,1.03003013,4.725831,1.1,0.9,1.1,0.9
105,'MOODY 1',115.0,1,1,1,1,1.01666915,-2.782603,1.1,0.9,1.1,0.9
106,'MOODY 2',115.0,1,1,1,1,1.01668131,-2.779951,1.1,0.9,1.1,0.9
107,'ROCKDALE 1 1',115.0,1,1,1,1,1.0356245,-2.140057,1.1,0.9,1.1,0.9
108,'ROCKDALE 2 1',115.0,1,1,1,1,1.03582668,-1.700704,1.1,0.9,1.1,0.9
109,'ROCKDALE 3 1',115.0,1,1,1,1,1.03576148,-2.077668,1.1,0.9,1.1,0.9
110,'ROGERS 1',115.0,1,1,1,1,1.03417778,-0.909321,1.1,0.9,1.1,0.9
111,'ROSEBUD 1',115.0,1,1,1,1,1.03648138,-1.063412,1.1,0.9,1.1,0.9
112,'TAYLOR 1 1',115.0,1,1,1,1,1.0081346,-3.546461,1.1,0.9,1.1,0.9
113,'TAYLOR 2 1',115.0,1,1,1,1,1.00589466,-3.36182,1.1,0.9,1.1,0.9
114,'TAYLOR 3 1',115.0,1,1,1,1,1.00717974,-3.549897,1.1,0.9,1.1,0.9
115,'TAYLOR 3 2',115.0,1,1,1,1,1.007213,-3.546583,1.1,0.9,1.1,0.9
116,'THORNDALE ~1',115.0,1,1,1,1,1.007496,-3.594746,1.1,0.9,1.1,0.9
117,'THORNDALE ~2',115.0,1,1,1,1,1.03672934,-1.795972,1.1,0.9,1.1,0.9
118,'TROY 1',115.0,1,1,1,1,1.02246451,-1.584152,1.1,0.9,1.1,0.9
119,'CLIFTON 1 1',115.0,1,1,1,1,1.0274123,0.067638,1.1,0.9,1.1,0.9
120,'CLIFTON 2 1',115.0,1,1,1,1,1.02754092,0.099317,1.1,0.9,1.1,0.9
121,'CRAWFORD 1',115.0,1,1,1,1,1.02980518,0.609526,1.1,0.9,1.1,0.9
122,'HILLSBORO ~1',230.0,1,1,1,1,1.0412935,3.173784,1.1,0.9,1.1,0.9
123,'HILLSBORO ~2',115.0,1,1,1,1,1.04063606,2.654482,1.1,0.9,1.1,0.9
124,'HILLSBORO ~3',230.0,1,1,1,1,1.04122174,3.170154,1.1,0.9,1.1,0.9
125,'HILLSBORO ~4',115.0,1,1,1,1,1.03371024,1.643898,1.1,0.9,1.1,0.9
126,'HUBBARD 1',115.0,1,1,1,1,1.03598309,1.177762,1.1,0.9,1.1,0.9
127,'LORENA 1',115.0,1,1,1,1,1.02626634,-1.098281,1.1,0.9,1.1,0.9
128,'LOTT 1',115.0,1,1,1,1,1.02566338,-1.210988,1.1,0.9,1.1,0.9
129,'LOTT 2',115.0,1,1,1,1,1.02564538,-1.213478,1.1,0.9,1.1,0.9
130,'MARLIN 1 1',115.0,1,1,1,1,1.03365445,-1.058884,1.1,0.9,1.1,0.9
131,'MARLIN 2 1',115.0,1,1,1,1,1.03056848,-1.09596,1.1,0.9,1.1,0.9
132,'MART 1',115.0,1,1,1,1,1.03741896,1.501271,1.1,0.9,1.1,0.9
133,'MERIDIAN 1',115.0,1,1,1,1,1.02713323,-0.025582,1.1,0.9,1.1,0.9
134,'MEXIA 1',230.0,1,1,1,1,1.04282331,3.029454,1.1,0.9,1.1,0.9
135,'MEXIA 2',115.0,1,1,1,1,1.04257751,2.040059,1.1,0.9,1.1,0.9
136,'MEXIA 3',230.0,1,1,1,1,1.04277134,3.018697,1.1,0.9,1.1,0.9
137,'WEST 1',115.0,1,1,1,1,1.03555906,0.896349,1.1,0.9,1.1,0.9
138,'WHITNEY 1 1',115.0,1,1,1,1,1.03968251,2.751238,1.1,0.9,1.1,0.9
139,'WHITNEY 2 1',115.0,1,1,1,1,1.0384593,2.513296,1.1,0.9,1.1,0.9
140,'WHITNEY 3 1',115.0,1,1,1,1,1.03464973,1.730099,1.1,0.9,1.1,0.9
141,'WACO 1 1',230.0,1,1,1,1,1.03888595,2.429329,1.1,0.9,1.1,0.9
142,'WACO 1 2',230.0,1,1,1,1,1.03867519,2.406151,1.1,0.9,1.1,0.9
143,'WACO 1 3',115.0,1,1,1,1,1.0349772,0.933572,1.1,0.9,1.1,0.9
144,'WACO 1 4',230.0,1,1,1,1,1.03918111,2.452375,1.1,0.9,1.1,0.9
145,'WACO 2 1',115.0,1,1,1,1,1.03608429,1.148772,1.1,0.9,1.1,0.9
146,'WACO 2 2',115.0,1,1,1,1,1.03605294,1.14339,1.1,0.9,1.1,0.9
147,'WACO 3 1',115.0,1,1,1,1,1.03560209,1.09661,1.1,0.9,1.1,0.9
148,'WACO 4 1',115.0,1,1,1,1,1.03128946,0.577786,1.1,0.9,1.1,0.9
149,'WACO 5 1',230.0,1,1,1,1,1.03775465,2.042955,1.1,0.9,1.1,0.9
150,'WACO 5 2',115.0,1,1,1,1,1.03174269,0.173033,1.1,0.9,1.1,0.9
151,'WACO 6 1',115.0,1,1,1,1,1.03376389,0.826839,1.1,0.9,1.1,0.9
152,'WACO 7 1',115.0,1,1,1,1,1.02985799,-0.196396,1.1,0.9,1.1,0.9
153,'WACO 8 1',230.0,1,1,1,1,1.0376724,2.613457,1.1,0.9,1.1,0.9
154,'WACO 8 2',115.0,1,1,1,1,1.03393722,1.202019,1.1,0.9,1.1,0.9
155,'WACO 9 1',115.0,1,1,1,1,1.03355598,1.079928,1.1,0.9,1.1,0.9
156,'WACO 9 2',115.0,1,1,1,1,1.03351915,1.074573,1.1,0.9,1.1,0.9
157,'WACO 10 1',115.0,1,1,1,1,1.03370321,0.996588,1.1,0.9,1.1,0.9
158,'WACO 11 1',115.0,1,1,1,1,1.02902412,-0.396296,1.1,0.9,1.1,0.9
159,'WACO 12 1',115.0,1,1,1,1,1.03125644,0.776703,1.1,0.9,1.1,0.9
160,'WACO 13 1',115.0,1,1,1,1,1.02981031,0.441443,1.1,0.9,1.1,0.9
161,'WOODWAY 1 1',115.0,1,1,1,1,1.02951622,0.508488,1.1,0.9,1.1,0.9
162,'WOODWAY 2 1',115.0,1,1,1,1,1.02949023,0.536101,1.1,0.9,1.1,0.9
163,'WOODWAY 2 2',115.0,1,1,1,1,1.02945697,0.532662,1.1,0.9,1.1,0.9
164,'BROWNWOOD ~1',115.0,1,1,1,1,1.01946521,0.967168,1.1,0.9,1.1,0.9
165,'BROWNWOOD ~2',230.0,1,1,1,1,1.03576159,3.127984,1.1,0.9,1.1,0.9
166,'BROWNWOOD ~3',230.0,1,1,1,1,1.03556144,3.109942,1.1,0.9,1.1,0.9
167,'BROWNWOOD ~4',115.0,1,1,1,1,1.02073491,1.291569,1.1,0.9,1.1,0.9
168,'BROWNWOOD ~5',230.0,1,1,1,1,1.035743,3.123872,1.1,0.9,1.1,0.9
169,'BROWNWOOD ~6',115.0,1,1,1,1,1.01756454,0.493184,1.1,0.9,1.1,0.9
170,'BROWNWOOD ~7',115.0,1,1,1,1,1.01764035,0.499234,1.1,0.9,1.1,0.9
171,'BROWNWOOD ~8',115.0,1,1,1,1,1.01924551,0.905164,1.1,0.9,1.1,0.9
172,'EARLY 1',115.0,1,1,1,1,1.01988864,0.763851,1.1,0.9,1.1,0.9
173,'BRADY 1 1',115.0,1,1,1,1,1.01750875,0.484521,1.1,0.9,1.1,0.9
174,'BRADY 2 1',115.0,1,1,1,1,1.017941,0.00277,1.1,0.9,1.1,0.9
175,'BRADY 2 2',115.0,1,1,1,1,1.0192076,0.17589,1.1,0.9,1.1,0.9
176,'BRADY 2 3',115.0,1,1,1,1,1.01791632,0.000346,1.1,0.9,1.1,0.9
177,'BRADY 2 3 ~2',230.0,1,1,1,1,1.0179255,0.001511,1.1,0.9,1.1,0.9
178,'COLEMAN 1 1',115.0,1,1,1,1,1.02083504,-0.76467,1.1,0.9,1.1,0.9
179,'COLEMAN 1 2',115.0,1,1,1,1,1.02079308,-0.769705,1.1,0.9,1.1,0.9
180,'COLEMAN 2 1',115.0,1,1,1,1,1.02031231,-0.729391,1.1,0.9,1.1,0.9
181,'MASON 1',115.0,1,1,1,1,1.01342654,1.228697,1.1,0.9,1.1,0.9
182,'ROCHELLE 1',115.0,1,1,1,1,1.02517807,0.035497,1.1,0.9,1.1,0.9
183,'SAN SABA 1',115.0,1,1,1,1,1.02847826,0.591463,1.1,0.9,1.1,0.9
184,'SANTA ANNA 1',115.0,1,1,1,1,1.02408516,-0.370788,1.1,0.9,1.1,0.9
185,'CONROE 1 1',115.0,1,1,1,1,1.00105166,-8.675592,1.1,0.9,1.1,0.9
186,'CONROE 2 1',230.0,1,1,1,1,1.01141262,-6.862276,1.1,0.9,1.1,0.9
187,'CONROE 2 2',115.0,1,1,1,1,1.00823915,-7.805162,1.1,0.9,1.1,0.9
188,'CONROE 2 3',230.0,1,1,1,1,1.01159787,-6.837228,1.1,0.9,1.1,0.9
189,'CONROE 3 1',115.0,1,1,1,1,1.01127732,-7.342289,1.1,0.9,1.1,0.9
190,'CONROE 4 1',115.0,1,1,1,1,1.00917649,-7.66729,1.1,0.9,1.1,0.9
191,'CONROE 5 1',115.0,1,1,1,1,1.00618029,-8.039349,1.1,0.9,1.1,0.9
192,'CONROE 6 1',115.0,1,1,1,1,1.00865746,-7.743305,1.1,0.9,1.1,0.9
193,'CONROE 7 1',115.0,1,1,1,1,1.01043594,-7.522577,1.1,0.9,1.1,0.9
194,'CONROE 8 1',115.0,1,1,1,1,1.00339472,-9.030059,1.1,0.9,1.1,0.9
195,'CONROE 9 1',115.0,1,1,1,1,1.00689399,-7.986256,1.1,0.9,1.1,0.9
196,'CONROE 9 1~1',115.0,1,1,1,1,1.00690925,-7.982031,1.1,0.9,1.1,0.9
197,'MONTGOMERY~1',115.0,1,1,1,1,1.01407123,-6.997139,1.1,0.9,1.1,0.9
198,'WILLIS 1 1',115.0,1,1,1,1,1.01300812,-7.017706,1.1,0.9,1.1,0.9
199,'WILLIS 2 1',115.0,1,1,1,1,1.01753843,-6.000356,1.1,0.9,1.1,0.9
200,'WILLIS 3 1',115.0,1,1,1,1,1.01303983,-7.075687,1.1,0.9,1.1,0.9
...
0 / END OF BUS DATA BEGIN LOAD DATA
1,'1',1,1,1,6.946,1.785,0.0,0.0,0.0,0.0,1,1,0
2,'1',1,1,1,5.506,0.215,0.0,0.0,0.0,0.0,1,1,0
3,'1',1,1,1,11.899,0.93,0.0,0.0,0.0,0.0,1,1,0
5,'1',1,1,1,8.654,3.234,0.0,0.0,0.0,0.0,1,1,0
6,'1',1,1,1,4.701,2.362,0.0,0.0,0.0,0.0,1,1,0
7,'1',1,1,1,7.661,3.432,0.0,0.0,0.0,0.0,1,1,0
9,'1',1,1,1,11.878,1.97,0.0,0.0,0.0,0.0,1,1,0
10,'1',1,1,1,4.592,0.538,0.0,0.0,0.0,0.0,1,1,0
11,'1',1,1,1,5.059,1.786,0.0,0.0,0.0,0.0,1,1,0
14,'1',1,1,1,14.688,6.055,0.0,0.0,0.0,0.0,1,1,0
15,'1',1,1,1,6.14,1.209,0.0,0.0,0.0,0.0,1,1,0
16,'1',1,1,1,4.71,1.506,0.0,0.0,0.0,0.0,1,1,0
17,'1',1,1,1,6.34,1.149,0.0,0.0,0.0,0.0,1,1,0
21,'1',1,1,1,13.041,0.496,0.0,0.0,0.0,0.0,1,1,0
23,'1',1,1,1,3.472,0.853,0.0,0.0,0.0,0.0,1,1,0
24,'1',1,1,1,2.921,0.653,0.0,0.0,0.0,0.0,1,1,0
25,'1',1,1,1,5.533,0.483,0.0,0.0,0.0,0.0,1,1,0
26,'1',1,1,1,4.255,0.578,0.0,0.0,0.0,0.0,1,1,0
27,'1',1,1,1,7.644,1.338,0.0,0.0,0.0,0.0,1,1,0
28,'1',1,1,1,3.317,0.501,0.0,0.0,0.0,0.0,1,1,0
30,'1',1,1,1,4.414,0.622,0.0,0.0,0.0,0.0,1,1,0
31,'1',1,1,1,2.492,0.526,0.0,0.0,0.0,0.0,1,1,0
32,'1',1,1,1,5.014,1.485,0.0,0.0,0.0,0.0,1,1,0
33,'1',1,1,1,2.174,0.634,0.0,0.0,0.0,0.0,1,1,0
34,'1',1,1,1,12.541,3.393,0.0,0.0,0.0,0.0,1,1,0
35,'1',1,1,1,4.749,1.48,0.0,0.0,0.0,0.0,1,1,0
36,'1',1,1,1,2.821,1.118,0.0,0.0,0.0,0.0,1,1,0
38,'1',1,1,1,9.243,0.621,0.0,0.0,0.0,0.0,1,1,0
39,'1',1,1,1,5.989,1.291,0.0,0.0,0.0,0.0,1,1,0
41,'1',1,1,1,4.035,1.401,0.0,0.0,0.0,0.0,1,1,0
42,'1',1,1,1,3.017,1.057,0.0,0.0,0.0,0.0,1,1,0
44,'1',1,1,1,2.131,0.65,0.0,0.0,0.0,0.0,1,1,0
45,'1',1,1,1,8.635,2.522,0.0,0.0,0.0,0.0,1,1,0
46,'1',1,1,1,4.416,0.832,0.0,0.0,0.0,0.0,1,1,0
48,'1',1,1,1,8.598,2.517,0.0,0.0,0.0,0.0,1,1,0
50,'1',1,1,1,5.303,1.988,0.0,0.0,0.0,0.0,1,1,0
51,'1',1,1,1,2.828,0.762,0.0,0.0,0.0,0.0,1,1,0
53,'1',1,1,1,12.784,1.436,0.0,0.0,0.0,0.0,1,1,0
54,'1',1,1,1,5.1,2.204,0.0,0.0,0.0,0.0,1,1,0
56,'1',1,1,1,4.366,0.74,0.0,0.0,0.0,0.0,1,1,0
57,'1',1,1,1,9.662,2.056,0.0,0.0,0.0,0.0,1,1,0
58,'1',1,1,1,14.588,1.958,0.0,0.0,0.0,0.0,1,1,0
60,'1',1,1,1,7.011,1.166,0.0,0.0,0.0,0.0,1,1,0
61,'1',1,1,1,12.621,3.491,0.0,0.0,0.0,0.0,1,1,0
62,'1',1,1,1,8.025,0.792,0.0,0.0,0.0,0.0,1,1,0
64,'1',1,1,1,21.869,4.217,0.0,0.0,0.0,0.0,1,1,0
66,'1',1,1,1,19.717,4.146,0.0,0.0,0.0,0.0,1,1,0
67,'1',1,1,1,8.606,5.58,0.0,0.0,0.0,0.0,1,1,0
68,'1',1,1,1,17.261,1.943,0.0,0.0,0.0,0.0,1,1,0
69,'1',1,1,1,5.287,2.27,0.0,0.0,0.0,0.0,1,1,0
70,'1',1,1,1,5.561,1.898,0.0,0.0,0.0,0.0,1,1,0
72,'1',1,1,1,8.602,3.292,0.0,0.0,0.0,0.0,1,1,0
73,'1',1,1,1,5.63,1.159,0.0,0.0,0.0,0.0,1,1,0
74,'1',1,1,1,3.109,0.335,0.0,0.0,0.0,0.0,1,1,0
75,'1',1,1,1,2.14,0.573,0.0,0.0,0.0,0.0,1,1,0
76,'1',1,1,1,2.042,0.795,0.0,0.0,0.0,0.0,1,1,0
76,'2',1,1,1,2.51,0.94,0.0,0.0,0.0,0.0,1,1,0
77,'1',1,1,1,16.984,2.875,0.0,0.0,0.0,0.0,1,1,0
78,'1',1,1,1,3.912,1.276,0.0,0.0,0.0,0.0,1,1,0
79,'1',1,1,1,10.384,8.29,0.0,0.0,0.0,0.0,1,1,0
80,'1',1,1,1,11.283,4.987,0.0,0.0,0.0,0.0,1,1,0
81,'1',1,1,1,10.085,4.453,0.0,0.0,0.0,0.0,1,1,0
81,'2',1,1,1,1.707,0.675,0.0,0.0,0.0,0.0,1,1,0
82,'1',1,1,1,10.616,6.726,0.0,0.0,0.0,0.0,1,1,0
87,'1',1,1,1,8.18,4.053,0.0,0.0,0.0,0.0,1,1,0
88,'1',1,1,1,8.049,2.58,0.0,0.0,0.0,0.0,1,1,0
90,'1',1,1,1,8.199,1.162,0.0,0.0,0.0,0.0,1,1,0
91,'1',1,1,1,8.527,1.931,0.0,0.0,0.0,0.0,1,1,0
91,'2',1,1,1,8.168,2.087,0.0,0.0,0.0,0.0,1,1,0
93,'1',1,1,1,24.21,5.184,0.0,0.0,0.0,0.0,1,1,0
94,'1',1,1,1,12.301,3.252,0.0,0.0,0.0,0.0,1,1,0
95,'1',1,1,1,14.441,3.991,0.0,0.0,0.0,0.0,1,1,0
96,'1',1,1,1,12.768,4.208,0.0,0.0,0.0,0.0,1,1,0
101,'1',1,1,1,7.734,1.246,0.0,0.0,0.0,0.0,1,1,0
102,'1',1,1,1,4.53,1.201,0.0,0.0,0.0,0.0,1,1,0
104,'1',1,1,1,3.89,2.681,0.0,0.0,0.0,0.0,1,1,0
104,'2',1,1,1,2.781,0.68,0.0,0.0,0.0,0.0,1,1,0
105,'1',1,1,1,4.176,0.274,0.0,0.0,0.0,0.0,1,1,0
107,'1',1,1,1,3.408,0.772,0.0,0.0,0.0,0.0,1,1,0
107,'2',1,1,1,0.423,0.212,0.0,0.0,0.0,0.0,1,1,0
108,'1',1,1,1,2.717,0.603,0.0,0.0,0.0,0.0,1,1,0
108,'2',1,1,1,2.091,0.28,0.0,0.0,0.0,0.0,1,1,0
109,'1',1,1,1,5.414,1.814,0.0,0.0,0.0,0.0,1,1,0
110,'1',1,1,1,4.361,0.331,0.0,0.0,0.0,0.0,1,1,0
111,'1',1,1,1,6.14,1.036,0.0,0.0,0.0,0.0,1,1,0
112,'1',1,1,1,3.612,0.288,0.0,0.0,0.0,0.0,1,1,0
112,'2',1,1,1,4.809,1.108,0.0,0.0,0.0,0.0,1,1,0
113,'1',1,1,1,4.836,1.009,0.0,0.0,0.0,0.0,1,1,0
114,'1',1,1,1,4.855,1.73,0.0,0.0,0.0,0.0,1,1,0
114,'2',1,1,1,0.521,0.032,0.0,0.0,0.0,0.0,1,1,0
116,'1',1,1,1,2.527,0.095,0.0,0.0,0.0,0.0,1,1,0
117,'1',1,1,1,2.545,0.288,0.0,0.0,0.0,0.0,1,1,0
118,'1',1,1,1,12.084,4.347,0.0,0.0,0.0,0.0,1,1,0
119,'1',1,1,1,4.719,1.76,0.0,0.0,0.0,0.0,1,1,0
120,'1',1,1,1,7.347,1.791,0.0,0.0,0.0,0.0,1,1,0
121,'1',1,1,1,6.765,2.868,0.0,0.0,0.0,0.0,1,1,0
124,'1',1,1,1,7.694,5.043,0.0,0.0,0.0,0.0,1,1,0
125,'1',1,1,1,11.709,3.956,0.0,0.0,0.0,0.0,1,1,0
126,'1',1,1,1,4.759,2.714,0.0,0.0,0.0,0.0,1,1,0
127,'1',1,1,1,3.554,1.238,0.0,0.0,0.0,0.0,1,1,0
127,'2',1,1,1,0.686,0.458,0.0,0.0,0.0,0.0,1,1,0
129,'1',1,1,1,4.461,0.56,0.0,0.0,0.0,0.0,1,1,0
130,'1',1,1,1,7.775,0.805,0.0,0.0,0.0,0.0,1,1,0
131,'1',1,1,1,8.342,1.886,0.0,0.0,0.0,0.0,1,1,0
132,'1',1,1,1,5.711,1.303,0.0,0.0,0.0,0.0,1,1,0
133,'1',1,1,1,4.75,1.088,0.0,0.0,0.0,0.0,1,1,0
136,'1',1,1,1,18.36,0.571,0.0,0.0,0.0,0.0,1,1,0
137,'1',1,1,1,12.713,0.474,0.0,0.0,0.0,0.0,1,1,0
138,'1',1,1,1,4.103,0.763,0.0,0.0,0.0,0.0,1,1,0
139,'1',1,1,1,6.563,3.208,0.0,0.0,0.0,0.0,1,1,0
140,'1',1,1,1,4.94,1.388,0.0,0.0,0.0,0.0,1,1,0
143,'1',1,1,1,34.18,1.018,0.0,0.0,0.0,0.0,1,1,0
146,'1',1,1,1,9.381,1.072,0.0,0.0,0.0,0.0,1,1,0
147,'1',1,1,1,10.161,1.422,0.0,0.0,0.0,0.0,1,1,0
148,'1',1,1,1,10.243,4.463,0.0,0.0,0.0,0.0,1,1,0
148,'2',1,1,1,3.339,0.145,0.0,0.0,0.0,0.0,1,1,0
150,'1',1,1,1,18.064,5.767,0.0,0.0,0.0,0.0,1,1,0
151,'1',1,1,1,10.699,0.813,0.0,0.0,0.0,0.0,1,1,0
151,'2',1,1,1,0.803,0.202,0.0,0.0,0.0,0.0,1,1,0
152,'1',1,1,1,11.032,2.035,0.0,0.0,0.0,0.0,1,1,0
154,'1',1,1,1,6.804,1.668,0.0,0.0,0.0,0.0,1,1,0
154,'2',1,1,1,7.324,1.956,0.0,0.0,0.0,0.0,1,1,0
156,'1',1,1,1,9.556,1.402,0.0,0.0,0.0,0.0,1,1,0
157,'1',1,1,1,11.82,2.351,0.0,0.0,0.0,0.0,1,1,0
158,'1',1,1,1,14.144,3.086,0.0,0.0,0.0,0.0,1,1,0
159,'1',1,1,1,18.422,1.093,0.0,0.0,0.0,0.0,1,1,0
160,'1',1,1,1,18.074,0.263,0.0,0.0,0.0,0.0,1,1,0
161,'1',1,1,1,17.475,7.249,0.0,0.0,0.0,0.0,1,1,0
163,'1',1,1,1,6.458,1.901,0.0,0.0,0.0,0.0,1,1,0
164,'1',1,1,1,7.933,0.513,0.0,0.0,0.0,0.0,1,1,0
167,'1',1,1,1,12.381,1.27,0.0,0.0,0.0,0.0,1,1,0
169,'1',1,1,1,11.104,4.325,0.0,0.0,0.0,0.0,1,1,0
171,'1',1,1,1,9.084,2.851,0.0,0.0,0.0,0.0,1,1,0
171,'2',1,1,1,1.302,0.109,0.0,0.0,0.0,0.0,1,1,0
172,'1',1,1,1,7.848,1.642,0.0,0.0,0.0,0.0,1,1,0
173,'1',1,1,1,2.173,0.135,0.0,0.0,0.0,0.0,1,1,0
176,'1',1,1,1,6.082,2.339,0.0,0.0,0.0,0.0,1,1,0
179,'1',1,1,1,9.333,1.623,0.0,0.0,0.0,0.0,1,1,0
180,'1',1,1,1,3.057,0.408,0.0,0.0,0.0,0.0,1,1,0
181,'1',1,1,1,6.744,1.58,0.0,0.0,0.0,0.0,1,1,0
182,'1',1,1,1,1.718,0.307,0.0,0.0,0.0,0.0,1,1,0
183,'1',1,1,1,4.974,1.677,0.0,0.0,0.0,0.0,1,1,0
184,'1',1,1,1,2.031,0.39,0.0,0.0,0.0,0.0,1,1,0
185,'1',1,1,1,11.822,3.448,0.0,0.0,0.0,0.0,1,1,0
187,'1',1,1,1,7.847,1.397,0.0,0.0,0.0,0.0,1,1,0
187,'2',1,1,1,5.256,0.538,0.0,0.0,0.0,0.0,1,1,0
189,'1',1,1,1,8.856,0.521,0.0,0.0,0.0,0.0,1,1,0
189,'2',1,1,1,6.133,0.535,0.0,0.0,0.0,0.0,1,1,0
190,'1',1,1,1,9.134,1.59,0.0,0.0,0.0,0.0,1,1,0
190,'2',1,1,1,3.759,0.949,0.0,0.0,0.0,0.0,1,1,0
191,'1',1,1,1,6.375,2.037,0.0,0.0,0.0,0.0,1,1,0
191,'2',1,1,1,5.526,1.087,0.0,0.0,0.0,0.0,1,1,0
192,'1',1,1,1,5.537,0.207,0.0,0.0,0.0,0.0,1,1,0
193,'1',1,1,1,4.846,2.395,0.0,0.0,0.0,0.0,1,1,0
194,'1',1,1,1,18.959,5.476,0.0,0.0,0.0,0.0,1,1,0
195,'1',1,1,1,11.981,1.941,0.0,0.0,0.0,0.0,1,1,0
197,'1',1,1,1,5.532,1.686,0.0,0.0,0.0,0.0,1,1,0
198,'1',1,1,1,5.898,2.133,0.0,0.0,0.0,0.0,1,1,0
199,'1',1,1,1,5.054,0.9,0.0,0.0,0.0,0.0,1,1,0
200,'1',1,1,1,6.101,1.867,0.0,0.0,0.0,0.0,1,1,0
200,'2',1,1,1,5.437,0.029,0.0,0.0,0.0,0.0,1,1,0
203,'1',1,1,1,8.145,3.735,0.0,0.0,0.0,0.0,1,1,0
203,'2',1,1,1,2.078,0.331,0.0,0.0,0.0,0.0,1,1,0
204,'1',1,1,1,6.946,2.128,0.0,0.0,0.0,0.0,1,1,0
205,'1',1,1,1,8.536,1.375,0.0,0.0,0.0,0.0,1,1,0
206,'1',1,1,1,9.318,1.539,0.0,0.0,0.0,0.0,1,1,0
207,'1',1,1,1,21.899,6.701,0.0,0.0,0.0,0.0,1,1,0
210,'1',1,1,1,20.493,7.575,0.0,0.0,0.0,0.0,1,1,0
212,'1',1,1,1,20.272,0.36,0.0,0.0,0.0,0.0,1,1,0
213,'1',1,1,1,15.159,0.974,0.0,0.0,0.0,0.0,1,1,0
214,'1',1,1,1,1.605,0.31,0.0,0.0,0.0,0.0,1,1,0
214,'2',1,1,1,1.845,0.053,0.0,0.0,0.0,0.0,1,1,0
218,'1',1,1,1,19.199,2.271,0.0,0.0,0.0,0.0,1,1,0
219,'1',1,1,1,5.792,0.206,0.0,0.0,0.0,0.0,1,1,0
219,'2',1,1,1,6.447,0.886,0.0,0.0,0.0,0.0,1,1,0
220,'1',1,1,1,8.047,1.422,0.0,0.0,0.0,0.0,1,1,0
221,'1',1,1,1,25.62,9.717,0.0,0.0,0.0,0.0,1,1,0
222,'1',1,1,1,11.59,1.436,0.0,0.0,0.0,0.0,1,1,0
224,'1',1,1,1,9.684,1.156,0.0,0.0,0.0,0.0,1,1,0
226,'1',1,1,1,10.524,2.577,0.0,0.0,0.0,0.0,1,1,0
226,'2',1,1,1,7.064,5.237,0.0,0.0,0.0,0.0,1,1,0
228,'1',1,1,1,10.056,2.106,0.0,0.0,0.0,0.0,1,1,0
228,'2',1,1,1,11.659,3.19,0.0,0.0,0.0,0.0,1,1,0
229,'1',1,1,1,23.714,8.929,0.0,0.0,0.0,0.0,1,1,0
232,'1',1,1,1,27.995,18.126,0.0,0.0,0.0,0.0,1,1,0
236,'1',1,1,1,34.475,7.775,0.0,0.0,0.0,0.0,1,1,0
237,'1',1,1,1,10.384,3.458,0.0,0.0,0.0,0.0,1,1,0
238,'1',1,1,1,21.163,7.262,0.0,0.0,0.0,0.0,1,1,0
239,'1',1,1,1,10.972,2.511,0.0,0.0,0.0,0.0,1,1,0
240,'1',1,1,1,4.419,1.291,0.0,0.0,0.0,0.0,1,1,0
240,'2',1,1,1,1.122,0.094,0.0,0.0,0.0,0.0,1,1,0
241,'1',1,1,1,3.674,0.801,0.0,0.0,0.0,0.0,1,1,0
241,'2',1,1,1,6.929,1.51,0.0,0.0,0.0,0.0,1,1,0
242,'1',1,1,1,30.533,5.675,0.0,0.0,0.0,0.0,1,1,0
243,'1',1,1,1,25.688,9.248,0.0,0.0,0.0,0.0,1,1,0
244,'1',1,1,1,7.65,1.821,0.0,0.0,0.0,0.0,1,1,0
245,'1',1,1,1,15.508,4.561,0.0,0.0,0.0,0.0,1,1,0
246,'1',1,1,1,15.775,3.525,0.0,0.0,0.0,0.0,1,1,0
247,'1',1,1,1,2.675,1.195,0.0,0.0,0.0,0.0,1,1,0
248,'1',1,1,1,7.972,0.488,0.0,0.0,0.0,0.0,1,1,0
...
0 / END OF LOAD DATA BEGIN FIXED SHUNT DATA
0 / END OF FIXED SHUNT DATA BEGIN GENERATOR DATA
476,'1',0.0,0.0,431.0,-258.6,1.05,473,1109.88,0.0,1.0,0.0,0.0,1.0,0,100.0,656.68,454.19,1,1.0,0,1.0,0,1.0,0,1.0,0,1.0
477,'1',0.0,0.0,431.0,-258.6,1.05,473,1109.88,0.0,1.0,0.0,0.0,1.0,0,100.0,656.68,230.89,1,1.0,0,1.0,0,1.0,0,1.0,0,1.0
481,'1',119.752,-39.171,94.84,-66.388,1.04,0,223.6,0.0,1.0,0.0,0.0,1.0,1,100.0,132.29,70.02,1,1.0,0,1.0,0,1.0,0,1.0,0,1.0
482,'1',116.782,94.84,94.84,-56.904,1.048,478,223.6,0.0,1.0,0.0,0.0,1.0,1,100.0,132.29,30.21,1,1.0,0,1.0,0,1.0,0,1.0,0,1.0
483,'1',116.782,94.84,94.84,-56.904,1.048,478,223.6,0.0,1.0,0.0,0.0,1.0,1,100.0,132.29,60.25,1,1.0,0,1.0,0,1.0,0,1.0,0,1.0
487,'1',117.489,93.782,98.75,-59.25,1.046,484,232.8,0.0,1.0,0.0,0.0,1.0,1,100.0,137.74,96.35,1,1.0,0,1.0,0,1.0,0,1.0,0,1.0
488,'1',118.966,93.782,98.75,-59.25,1.046,484,232.8,0.0,1.0,0.0,0.0,1.0,1,100.0,137.74,65.16,1,1.0,0,1.0,0,1.0,0,1.0,0,1.0
493,'1',0.0,0.0,119.58,-71.748,1.053,490,281.91,0.0,1.0,0.0,0.0,1.0,0,100.0,166.8,69.49,1,1.0,0,1.0,0,1.0,0,1.0,0,1.0
494,'1',0.0,0.0,119.58,-71.748,1.053,490,281.91,0.0,1.0,0.0,0.0,1.0,0,100.0,166.8,87.1,1,1.0,0,1.0,0,1.0,0,1.0,0,1.0
495,'1',0.0,0.0,119.58,-71.748,1.053,490,281.91,0.0,1.0,0.0,0.0,1.0,0,100.0,166.8,94.07,1,1.0,0,1.0,0,1.0,0,1.0,0,1.0
496,'1',0.0,0.0,119.58,-71.748,1.053,490,281.91,0.0,1.0,0.0,0.0,1.0,0,100.0,166.8,75.5,1,1.0,0,1.0,0,1.0,0,1.0,0,1.0
500,'1',0.0,0.0,108.42,-75.894,1.04,0,255.6,0.0,1.0,0.0,0.0,1.0,0,100.0,151.23,41.0,1,1.0,0,1.0,0,1.0,0,1.0,0,1.0
501,'1',0.0,0.0,108.42,-65.052,1.046,497,255.6,0.0,1.0,0.0,0.0,1.0,0,100.0,151.23,32.83,1,1.0,0,1.0,0,1.0,0,1.0,0,1.0
502,'1',0.0,0.0,108.42,-75.894,1.04,0,255.6,0.0,1.0,0.0,0.0,1.0,0,100.0,151.23,55.54,1,1.0,0,1.0,0,1.0,0,1.0,0,1.0
507,'1',0.0,0.0,138.14,-96.698,1.042,504,325.68,0.0,1.0,0.0,0.0,1.0,0,100.0,192.69,85.62,1,1.0,0,1.0,0,1.0,0,1.0,0,1.0
508,'1',0.0,0.0,138.14,-96.698,1.042,504,325.68,0.0,1.0,0.0,0.0,1.0,0,100.0,192.69,92.54,1,1.0,0,1.0,0,1.0,0,1.0,0,1.0
509,'1',303.578,-4.032,5.76,-4.032,1.04,0,18.0,0.0,1.0,0.0,0.0,1.0,1,100.0,400.0,4.0,1,1.0,0,1.0,0,1.0,0,1.0,0,1.0
510,'1',368.165,-4.921,7.03,-4.921,1.04,0,21.96,0.0,1.0,0.0,0.0,1.0,1,100.0,400.0,6.4,1,1.0,0,1.0,0,1.0,0,1.0,0,1.0
510,'2',368.165,-4.921,7.03,-4.921,1.04,0,21.96,0.0,1.0,0.0,0.0,1.0,1,100.0,400.0,7.7,1,1.0,0,1.0,0,1.0,0,1.0,0,1.0
510,'3',368.165,-4.921,7.03,-4.921,1.04,0,21.96,0.0,1.0,0.0,0.0,1.0,1,100.0,400.0,2.6,1,1.0,0,1.0,0,1.0,0,1.0,0,1.0
513,'1',22.564,13.82,13.82,-9.674,1.04,0,43.2,0.0,1.0,0.0,0.0,1.0,1,100.0,25.56,9.4,1,1.0,0,1.0,0,1.0,0,1.0,0,1.0
513,'2',22.564,13.82,13.82,-9.674,1.04,0,43.2,0.0,1.0,0.0,0.0,1.0,1,100.0,25.56,9.56,1,1.0,0,1.0,0,1.0,0,1.0,0,1.0
514,'1',22.564,13.82,13.82,-9.674,1.04,0,43.2,0.0,1.0,0.0,0.0,1.0,1,100.0,25.56,14.14,1,1.0,0,1.0,0,1.0,0,1.0,0,1.0
515,'1',5.641,3.46,3.46,-2.422,1.04,0,10.8,0.0,1.0,0.0,0.0,1.0,1,100.0,6.39,1.46,1,1.0,0,1.0,0,1.0,0,1.0,0,1.0
515,'2',5.641,3.46,3.46,-2.422,1.04,0,10.8,0.0,1.0,0.0,0.0,1.0,1,100.0,6.39,4.17,1,1.0,0,1.0,0,1.0,0,1.0,0,1.0
520,'1',0.0,0.0,104.97,-73.479,1.04,0,247.48,0.0,1.0,0.0,0.0,1.0,0,100.0,146.42,75.93,1,1.0,0,1.0,0,1.0,0,1.0,0,1.0
521,'1',0.0,0.0,104.97,-73.479,1.046,517,247.48,0.0,1.0,0.0,0.0,1.0,0,100.0,146.42,99.39,1,1.0,0,1.0,0,1.0,0,1.0,0,1.0
522,'1',134.003,69.399,104.97,-73.479,1.046,517,247.48,0.0,1.0,0.0,0.0,1.0,1,100.0,146.42,71.07,1,1.0,0,1.0,0,1.0,0,1.0,0,1.0
523,'1',32.212,15.271,26.16,-18.312,1.04,0,61.68,0.0,1.0,0.0,0.0,1.0,1,100.0,36.49,20.44,1,1.0,0,1.0,0,1.0,0,1.0,0,1.0
523,'2',32.212,15.271,26.16,-18.312,1.04,0,61.68,0.0,1.0,0.0,0.0,1.0,1,100.0,36.49,5.59,1,1.0,0,1.0,0,1.0,0,1.0,0,1.0
523,'3',32.212,15.271,26.16,-18.312,1.04,0,61.68,0.0,1.0,0.0,0.0,1.0,1,100.0,36.49,15.43,1,1.0,0,1.0,0,1.0,0,1.0,0,1.0
523,'4',32.212,15.271,26.16,-18.312,1.04,0,61.68,0.0,1.0,0.0,0.0,1.0,1,100.0,36.49,13.1,1,1.0,0,1.0,0,1.0,0,1.0,0,1.0
523,'5',32.212,15.271,26.16,-18.312,1.04,0,61.68,0.0,1.0,0.0,0.0,1.0,1,100.0,36.49,21.71,1,1.0,0,1.0,0,1.0,0,1.0,0,1.0
523,'6',32.212,15.271,26.16,-18.312,1.04,0,61.68,0.0,1.0,0.0,0.0,1.0,1,100.0,36.49,10.5,1,1.0,0,1.0,0,1.0,0,1.0,0,1.0
527,'1',0.0,0.0,136.28,-95.396,1.05,524,321.28,0.0,1.0,0.0,0.0,1.0,0,100.0,190.09,41.46,1,1.0,0,1.0,0,1.0,0,1.0,0,1.0
528,'1',0.0,0.0,136.28,-95.396,1.05,524,321.28,0.0,1.0,0.0,0.0,1.0,0,100.0,190.09,77.16,1,1.0,0,1.0,0,1.0,0,1.0,0,1.0
529,'1',0.0,0.0,136.28,-95.396,1.05,524,321.28,0.0,1.0,0.0,0.0,1.0,0,100.0,190.09,95.47,1,1.0,0,1.0,0,1.0,0,1.0,0,1.0
531,'1',10.47,8.5,8.5,-5.95,1.04,0,20.04,0.0,1.0,0.0,0.0,1.0,1,100.0,11.86,4.98,1,1.0,0,1.0,0,1.0,0,1.0,0,1.0
533,'1',10.47,8.5,8.5,-5.95,1.04,0,20.04,0.0,1.0,0.0,0.0,1.0,1,100.0,11.86,8.28,1,1.0,0,1.0,0,1.0,0,1.0,0,1.0
533,'2',10.47,8.5,8.5,-5.95,1.04,0,20.04,0.0,1.0,0.0,0.0,1.0,1,100.0,11.86,6.63,1,1.0,0,1.0,0,1.0,0,1.0,0,1.0
533,'3',13.789,11.2,11.2,-7.84,1.04,0,26.4,0.0,1.0,0.0,0.0,1.0,1,100.0,15.62,7.83,1,1.0,0,1.0,0,1.0,0,1.0,0,1.0
536,'1',0.0,0.0,0.76,-0.532,1.04,535,100.0,0.0,1.0,0.0,0.0,1.0,0,100.0,1.06,0.16,1,1.0,0,1.0,0,1.0,0,1.0,0,1.0
536,'2',0.0,0.0,3.05,-2.135,1.04,535,100.0,0.0,1.0,0.0,0.0,1.0,0,100.0,4.26,2.82,1,1.0,0,1.0,0,1.0,0,1.0,0,1.0
537,'1',1.363,1.17,1.17,-0.819,1.04,0,2.76,0.0,1.0,0.0,0.0,1.0,1,100.0,1.63,0.75,1,1.0,0,1.0,0,1.0,0,1.0,0,1.0
537,'2',2.435,2.34,2.34,-1.638,1.04,0,5.52,0.0,1.0,0.0,0.0,1.0,1,100.0,3.27,1.21,1,1.0,0,1.0,0,1.0,0,1.0,0,1.0
537,'7',15.934,12.94,12.94,-9.058,1.04,0,30.5,0.0,1.0,0.0,0.0,1.0,1,100.0,18.05,4.65,1,1.0,0,1.0,0,1.0,0,1.0,0,1.0
538,'3',0.0,0.0,3.05,-2.135,1.04,537,100.0,0.0,1.0,0.0,0.0,1.0,0,100.0,4.26,1.79,1,1.0,0,1.0,0,1.0,0,1.0,0,1.0
538,'4',0.0,0.0,12.94,-9.058,1.04,537,100.0,0.0,1.0,0.0,0.0,1.0,0,100.0,18.05,3.9,1,1.0,0,1.0,0,1.0,0,1.0,0,1.0
538,'5',0.0,0.0,12.94,-9.058,1.04,537,100.0,0.0,1.0,0.0,0.0,1.0,0,100.0,18.05,11.14,1,1.0,0,1.0,0,1.0,0,1.0,0,1.0
538,'6',0.0,0.0,12.94,-9.058,1.04,537,100.0,0.0,1.0,0.0,0.0,1.0,0,100.0,18.05,4.53,1,1.0,0,1.0,0,1.0,0,1.0,0,1.0
538,'8',0.0,0.0,12.94,-9.058,1.04,537,100.0,0.0,1.0,0.0,0.0,1.0,0,100.0,18.05,4.12,1,1.0,0,1.0,0,1.0,0,1.0,0,1.0
538,'9',0.0,0.0,12.94,-9.058,1.04,537,100.0,0.0,1.0,0.0,0.0,1.0,0,100.0,18.05,3.18,1,1.0,0,1.0,0,1.0,0,1.0,0,1.0
542,'1',0.0,0.0,184.77,-129.339,1.034,540,435.6,0.0,1.0,0.0,0.0,1.0,0,100.0,257.73,81.68,1,1.0,0,1.0,0,1.0,0,1.0,0,1.0
543,'1',0.0,0.0,184.77,-129.339,1.034,540,435.6,0.0,1.0,0.0,0.0,1.0,0,100.0,257.73,155.03,1,1.0,0,1.0,0,1.0,0,1.0,0,1.0
544,'1',30.773,14.991,24.99,-17.493,1.04,0,58.92,0.0,1.0,0.0,0.0,1.0,1,100.0,34.86,20.93,1,1.0,0,1.0,0,1.0,0,1.0,0,1.0
544,'2',30.773,14.991,24.99,-17.493,1.04,0,58.92,0.0,1.0,0.0,0.0,1.0,1,100.0,34.86,20.35,1,1.0,0,1.0,0,1.0,0,1.0,0,1.0
548,'1',0.0,0.0,276.52,-165.912,1.046,545,712.08,0.0,1.0,0.0,0.0,1.0,0,100.0,421.31,215.89,1,1.0,0,1.0,0,1.0,0,1.0,0,1.0
549,'1',0.0,0.0,276.52,-165.912,1.046,545,712.08,0.0,1.0,0.0,0.0,1.0,0,100.0,421.31,265.82,1,1.0,0,1.0,0,1.0,0,1.0,0,1.0
554,'1',65.811,1.148,53.44,-37.408,1.04,0,126.0,0.0,1.0,0.0,0.0,1.0,1,100.0,74.55,44.25,1,1.0,0,1.0,0,1.0,0,1.0,0,1.0
559,'1',0.0,0.0,211.33,-126.798,1.053,556,544.2,0.0,1.0,0.0,0.0,1.0,0,100.0,321.99,123.53,1,1.0,0,1.0,0,1.0,0,1.0,0,1.0
561,'1',13.101,-1.089,8.03,-5.621,1.04,0,25.08,0.0,1.0,0.0,0.0,1.0,1,100.0,14.84,9.39,1,1.0,0,1.0,0,1.0,0,1.0,0,1.0
562,'2',0.0,0.0,8.03,-5.621,1.04,561,100.0,0.0,1.0,0.0,0.0,1.0,0,100.0,14.84,7.13,1,1.0,0,1.0,0,1.0,0,1.0,0,1.0
566,'1',0.0,0.0,308.26,-184.956,1.048,563,793.8,0.0,1.0,0.0,0.0,1.0,0,100.0,469.67,227.74,1,1.0,0,1.0,0,1.0,0,1.0,0,1.0
567,'1',13.789,2.573,8.45,-5.915,1.04,0,26.4,0.0,1.0,0.0,0.0,1.0,1,100.0,15.62,7.95,1,1.0,0,1.0,0,1.0,0,1.0,0,1.0
568,'1',12.22,8.45,8.45,-5.915,1.04,0,26.4,0.0,1.0,0.0,0.0,1.0,1,100.0,15.62,6.36,1,1.0,0,1.0,0,1.0,0,1.0,0,1.0
573,'1',104.497,87.89,87.89,-61.523,1.045,570,207.2,0.0,1.0,0.0,0.0,1.0,1,100.0,122.6,52.76,1,1.0,0,1.0,0,1.0,0,1.0,0,1.0
574,'1',108.229,-16.398,87.89,-61.523,1.04,0,207.2,0.0,1.0,0.0,0.0,1.0,1,100.0,122.6,39.78,1,1.0,0,1.0,0,1.0,0,1.0,0,1.0
575,'1',108.229,-19.075,87.89,-61.523,1.04,0,207.2,0.0,1.0,0.0,0.0,1.0,1,100.0,122.6,41.51,1,1.0,0,1.0,0,1.0,0,1.0,0,1.0
576,'1',108.229,-15.195,87.89,-61.523,1.04,0,207.2,0.0,1.0,0.0,0.0,1.0,1,100.0,122.6,46.2,1,1.0,0,1.0,0,1.0,0,1.0,0,1.0
577,'1',108.229,-18.299,87.89,-61.523,1.04,0,207.2,0.0,1.0,0.0,0.0,1.0,1,100.0,122.6,37.72,1,1.0,0,1.0,0,1.0,0,1.0,0,1.0
578,'1',108.229,-16.945,87.89,-61.523,1.04,0,207.2,0.0,1.0,0.0,0.0,1.0,1,100.0,122.6,38.43,1,1.0,0,1.0,0,1.0,0,1.0,0,1.0
579,'1',101.157,-8.912,82.15,-57.505,1.04,0,193.68,0.0,1.0,0.0,0.0,1.0,1,100.0,114.59,55.29,1,1.0,0,1.0,0,1.0,0,1.0,0,1.0
579,'2',101.157,-8.912,82.15,-57.505,1.04,0,193.68,0.0,1.0,0.0,0.0,1.0,1,100.0,114.59,77.68,1,1.0,0,1.0,0,1.0,0,1.0,0,1.0
579,'3',101.157,-8.912,82.15,-57.505,1.04,0,193.68,0.0,1.0,0.0,0.0,1.0,1,100.0,114.59,73.85,1,1.0,0,1.0,0,1.0,0,1.0,0,1.0
582,'1',101.157,-26.735,82.15,-57.505,1.04,579,193.68,0.0,1.0,0.0,0.0,1.0,1,100.0,114.59,35.4,1,1.0,0,1.0,0,1.0,0,1.0,0,1.0
583,'1',101.157,0.003,82.15,-57.505,1.04,0,193.68,0.0,1.0,0.0,0.0,1.0,1,100.0,114.59,67.46,1,1.0,0,1.0,0,1.0,0,1.0,0,1.0
586,'1',32.274,18.647,26.21,-18.347,1.04,0,61.8,0.0,1.0,0.0,0.0,1.0,1,100.0,36.56,5.76,1,1.0,0,1.0,0,1.0,0,1.0,0,1.0
586,'2',32.274,18.647,26.21,-18.347,1.04,0,61.8,0.0,1.0,0.0,0.0,1.0,1,100.0,36.56,17.59,1,1.0,0,1.0,0,1.0,0,1.0,0,1.0
586,'3',32.274,18.647,26.21,-18.347,1.04,0,61.8,0.0,1.0,0.0,0.0,1.0,1,100.0,36.56,7.22,1,1.0,0,1.0,0,1.0,0,1.0,0,1.0
586,'4',32.274,18.647,26.21,-18.347,1.04,0,61.8,0.0,1.0,0.0,0.0,1.0,1,100.0,36.56,6.6,1,1.0,0,1.0,0,1.0,0,1.0,0,1.0
589,'1',121.384,14.547,100.95,-60.57,1.04,0,238.0,0.0,1.0,0.0,0.0,1.0,1,100.0,140.81,96.91,1,1.0,0,1.0,0,1.0,0,1.0,0,1.0
590,'1',0.0,0.0,100.95,-60.57,1.04,0,238.0,0.0,1.0,0.0,0.0,1.0,0,100.0,140.81,33.6,1,1.0,0,1.0,0,1.0,0,1.0,0,1.0
591,'1',0.0,0.0,100.95,-60.57,1.04,0,238.0,0.0,1.0,0.0,0.0,1.0,0,100.0,140.81,76.51,1,1.0,0,1.0,0,1.0,0,1.0,0,1.0
596,'1',0.0,0.0,81.36,-56.952,1.04,0,209.52,0.0,1.0,0.0,0.0,1.0,0,100.0,123.97,79.68,1,1.0,0,1.0,0,1.0,0,1.0,0,1.0
597,'1',0.0,0.0,81.36,-56.952,1.04,0,209.52,0.0,1.0,0.0,0.0,1.0,0,100.0,123.97,63.69,1,1.0,0,1.0,0,1.0,0,1.0,0,1.0
598,'1',1.4,-0.577,0.0,-1.0,1.04,0,1.68,0.0,1.0,0.0,0.0,1.0,1,100.0,1.4,0.0,1,1.0,0,1.0,0,1.0,0,1.0,0,1.0
598,'2',30.0,-0.577,0.0,-18.0,1.04,0,36.0,0.0,1.0,0.0,0.0,1.0,1,100.0,30.0,0.0,1,1.0,0,1.0,0,1.0,0,1.0,0,1.0
603,'1',0.0,0.0,469.73,-281.838,1.052,600,1209.6,0.0,1.0,0.0,0.0,1.0,0,100.0,715.68,499.88,1,1.0,0,1.0,0,1.0,0,1.0,0,1.0
607,'1',0.0,0.0,418.33,-250.998,1.054,604,1077.24,0.0,1.0,0.0,0.0,1.0,0,100.0,637.37,313.25,1,1.0,0,1.0,0,1.0,0,1.0,0,1.0
608,'1',0.0,0.0,418.33,-250.998,1.054,604,1077.24,0.0,1.0,0.0,0.0,1.0,0,100.0,637.37,414.13,1,1.0,0,1.0,0,1.0,0,1.0,0,1.0
612,'1',66.268,3.753,31.95,-22.365,1.04,0,180.0,0.0,1.0,0.0,0.0,1.0,1,100.0,150.0,0.0,1,1.0,0,1.0,0,1.0,0,1.0,1,1.0
615,'1',0.0,0.0,275.22,-165.132,1.04,614,708.72,0.0,1.0,0.0,0.0,1.0,0,100.0,419.33,196.6,1,1.0,0,1.0,0,1.0,0,1.0,0,1.0
617,'1',18.803,-1.091,11.52,-8.064,1.04,0,36.0,0.0,1.0,0.0,0.0,1.0,1,100.0,21.3,11.24,1,1.0,0,1.0,0,1.0,0,1.0,0,1.0
617,'2',18.803,-1.091,11.52,-8.064,1.04,0,36.0,0.0,1.0,0.0,0.0,1.0,1,100.0,21.3,13.87,1,1.0,0,1.0,0,1.0,0,1.0,0,1.0
0 / END OF GENERATOR DATA BEGIN BRANCH DATA
1,3,'1',0.00635,0.02695,0.00279384,158.2,158.2,158.2,0.0,0.0,0.0,0.0,1,1,5.01,1,1.0,0,1.0,0,1.0,0,1.0
2,1,'1',0.01312,0.05468,0.0033746,140.2,140.2,140.2,0.0,0.0,0.0,0.0,1,1,7.97,1,1.0,0,1.0,0,1.0,0,1.0
3,2,'1',0.00728,0.0389,0.00738379,129.7,129.7,129.7,0.0,0.0,0.0,0.0,1,1,10.89,1,1.0,0,1.0,0,1.0,0,1.0
3,35,'1',0.01367,0.06535,0.0141864,185.9,185.9,185.9,0.0,0.0,0.0,0.0,1,1,16.71,1,1.0,0,1.0,0,1.0,0,1.0
4,5,'1',0.0002,0.00108,0.0,345.0,345.0,345.0,0.0,0.0,0.0,0.0,1,1,0.0,1,1.0,0,1.0,0,1.0,0,1.0
4,11,'1',0.01617,0.07615,0.0101452,157.3,157.3,157.3,0.0,0.0,0.0,0.0,1,1,14.52,1,1.0,0,1.0,0,1.0,0,1.0
4,14,'1',0.01126,0.07288,0.0162706,169.8,169.8,169.8,0.0,0.0,0.0,0.0,1,1,19.02,1,1.0,0,1.0,0,1.0,0,1.0
6,7,'1',0.00995,0.03066,0.0020398,154.9,154.9,154.9,0.0,0.0,0.0,0.0,1,1,5.22,1,1.0,0,1.0,0,1.0,0,1.0
6,23,'1',0.01595,0.06409,0.0067424,147.6,147.6,147.6,0.0,0.0,0.0,0.0,1,1,11.2,1,1.0,0,1.0,0,1.0,0,1.0
7,9,'1',0.01027,0.05768,0.00205452,168.0,168.0,168.0,0.0,0.0,0.0,0.0,1,1,8.2,1,1.0,0,1.0,0,1.0,0,1.0
8,571,'1',0.00384,0.03054,0.20291,549.3,549.3,549.3,0.0,0.0,0.0,0.0,1,1,40.94,1,1.0,0,1.0,0,1.0,0,1.0
10,1,'1',0.01276,0.0733,0.00959942,163.6,163.6,163.6,0.0,0.0,0.0,0.0,1,1,15.25,1,1.0,0,1.0,0,1.0,0,1.0
10,11,'1',0.01727,0.06921,0.00585598,175.5,175.5,175.5,0.0,0.0,0.0,0.0,1,1,14.27,1,1.0,0,1.0,0,1.0,0,1.0
11,14,'1',0.00558,0.02717,0.00208623,178.6,178.6,178.6,0.0,0.0,0.0,0.0,1,1,4.92,1,1.0,0,1.0,0,1.0,0,1.0
12,570,'1',0.00264,0.02133,0.119052,664.2,664.2,664.2,0.0,0.0,0.0,0.0,1,1,28.06,1,1.0,0,1.0,0,1.0,0,1.0
13,8,'1',0.00336,0.03163,0.03708,488.3,488.3,488.3,0.0,0.0,0.0,0.0,1,1,19.41,1,1.0,0,1.0,0,1.0,0,1.0
13,12,'1',0.0001,0.001,0.0,890.3,890.3,890.3,0.0,0.0,0.0,0.0,1,1,0.0,1,1.0,0,1.0,0,1.0,0,1.0
13,20,'1',0.00665,0.05004,0.16528,627.8,627.8,627.8,0.0,0.0,0.0,0.0,1,1,51.78,1,1.0,0,1.0,0,1.0,0,1.0
16,15,'1',0.02141,0.09305,0.00531401,145.8,145.8,145.8,0.0,0.0,0.0,0.0,1,1,12.33,1,1.0,0,1.0,0,1.0,0,1.0
17,18,'1',0.00027,0.00115,0.0,138.0,138.0,138.0,0.0,0.0,0.0,0.0,1,1,0.0,1,1.0,0,1.0,0,1.0,0,1.0
18,29,'1',0.01542,0.06443,0.017442,161.7,161.7,161.7,0.0,0.0,0.0,0.0,1,1,18.88,1,1.0,0,1.0,0,1.0,0,1.0
18,30,'1',0.02132,0.0706,0.00591085,146.3,146.3,146.3,0.0,0.0,0.0,0.0,1,1,13.81,1,1.0,0,1.0,0,1.0,0,1.0
19,22,'1',0.00025,0.00113,0.0,1500.0,1500.0,1500.0,0.0,0.0,0.0,0.0,1,1,0.0,1,1.0,0,1.0,0,1.0,0,1.0
20,19,'1',0.0001,0.001,0.0,749.6,749.6,749.6,0.0,0.0,0.0,0.0,1,1,0.0,1,1.0,0,1.0,0,1.0,0,1.0
20,201,'1',0.00743,0.05266,0.19472,650.8,650.8,650.8,0.0,0.0,0.0,0.0,1,1,54.1,1,1.0,0,1.0,0,1.0,0,1.0
22,473,'1',0.00408,0.03423,0.295266,646.8,646.8,646.8,0.0,0.0,0.0,0.0,1,1,57.18,1,1.0,0,1.0,0,1.0,0,1.0
23,26,'1',0.01431,0.06351,0.00505982,149.5,149.5,149.5,0.0,0.0,0.0,0.0,1,1,11.71,1,1.0,0,1.0,0,1.0,0,1.0
24,33,'1',0.01503,0.05067,0.0176974,162.9,162.9,162.9,0.0,0.0,0.0,0.0,1,1,16.15,1,1.0,0,1.0,0,1.0,0,1.0
24,34,'1',0.01416,0.05672,0.0187866,150.3,150.3,150.3,0.0,0.0,0.0,0.0,1,1,18.34,1,1.0,0,1.0,0,1.0,0,1.0
25,34,'1',0.01511,0.06952,0.0059337,154.3,154.3,154.3,0.0,0.0,0.0,0.0,1,1,12.67,1,1.0,0,1.0,0,1.0,0,1.0
25,547,'1',0.01161,0.05619,0.00532939,162.8,162.8,162.8,0.0,0.0,0.0,0.0,1,1,10.71,1,1.0,0,1.0,0,1.0,0,1.0
26,18,'1',0.02307,0.14347,0.00887279,155.3,155.3,155.3,0.0,0.0,0.0,0.0,1,1,19.24,1,1.0,0,1.0,0,1.0,0,1.0
27,15,'1',0.02463,0.09023,0.0126204,185.4,185.4,185.4,0.0,0.0,0.0,0.0,1,1,18.08,1,1.0,0,1.0,0,1.0,0,1.0
27,475,'1',0.01914,0.06432,0.00359889,188.0,188.0,188.0,0.0,0.0,0.0,0.0,1,1,9.45,1,1.0,0,1.0,0,1.0,0,1.0
28,29,'1',0.00025,0.00103,0.0,345.0,345.0,345.0,0.0,0.0,0.0,0.0,1,1,0.0,1,1.0,0,1.0,0,1.0,0,1.0
29,21,'1',0.01451,0.06831,0.00810963,167.8,167.8,167.8,0.0,0.0,0.0,0.0,1,1,12.81,1,1.0,0,1.0,0,1.0,0,1.0
30,31,'1',0.01235,0.05631,0.00785118,142.1,142.1,142.1,0.0,0.0,0.0,0.0,1,1,11.25,1,1.0,0,1.0,0,1.0,0,1.0
31,204,'1',0.01844,0.10602,0.0171339,141.2,141.2,141.2,0.0,0.0,0.0,0.0,1,1,22.85,1,1.0,0,1.0,0,1.0,0,1.0
32,15,'1',0.00947,0.04816,0.0038988,208.5,208.5,208.5,0.0,0.0,0.0,0.0,1,1,9.75,1,1.0,0,1.0,0,1.0,0,1.0
34,468,'1',0.03008,0.13024,0.0163429,162.0,162.0,162.0,0.0,0.0,0.0,0.0,1,1,25.29,1,1.0,0,1.0,0,1.0,0,1.0
36,32,'1',0.01342,0.0576,0.0224892,199.7,199.7,199.7,0.0,0.0,0.0,0.0,1,1,19.76,1,1.0,0,1.0,0,1.0,0,1.0
36,35,'1',0.0132,0.05853,0.00785898,191.3,191.3,191.3,0.0,0.0,0.0,0.0,1,1,11.54,1,1.0,0,1.0,0,1.0,0,1.0
37,122,'1',0.00406,0.04095,0.1376,538.7,538.7,538.7,0.0,0.0,0.0,0.0,1,1,41.51,1,1.0,0,1.0,0,1.0,0,1.0
39,140,'1',0.01632,0.07937,0.00820848,138.4,138.4,138.4,0.0,0.0,0.0,0.0,1,1,13.88,1,1.0,0,1.0,0,1.0,0,1.0
40,41,'1',0.00029,0.00113,0.0,345.0,345.0,345.0,0.0,0.0,0.0,0.0,1,1,0.0,1,1.0,0,1.0,0,1.0,0,1.0
40,43,'1',0.00759,0.03916,0.00863327,160.5,160.5,160.5,0.0,0.0,0.0,0.0,1,1,10.3,1,1.0,0,1.0,0,1.0,0,1.0
42,43,'1',0.00026,0.00103,0.0,138.0,138.0,138.0,0.0,0.0,0.0,0.0,1,1,0.0,1,1.0,0,1.0,0,1.0,0,1.0
45,40,'1',0.01551,0.05932,0.0124991,166.9,166.9,166.9,0.0,0.0,0.0,0.0,1,1,14.58,1,1.0,0,1.0,0,1.0,0,1.0
46,38,'1',0.03387,0.15112,0.0206609,153.0,153.0,153.0,0.0,0.0,0.0,0.0,1,1,29.13,1,1.0,0,1.0,0,1.0,0,1.0
46,48,'1',0.00601,0.02566,0.0163277,146.0,146.0,146.0,0.0,0.0,0.0,0.0,1,1,13.21,1,1.0,0,1.0,0,1.0,0,1.0
47,37,'1',0.00723,0.05839,0.0884,485.1,485.1,485.1,0.0,0.0,0.0,0.0,1,1,39.97,1,1.0,0,1.0,0,1.0,0,1.0
48,45,'1',0.01959,0.08775,0.0137816,172.8,172.8,172.8,0.0,0.0,0.0,0.0,1,1,19.08,1,1.0,0,1.0,0,1.0,0,1.0
48,49,'1',0.02146,0.11918,0.016182,141.0,141.0,141.0,0.0,0.0,0.0,0.0,1,1,24.75,1,1.0,0,1.0,0,1.0,0,1.0
49,50,'1',0.00027,0.00119,0.0,138.0,138.0,138.0,0.0,0.0,0.0,0.0,1,1,0.0,1,1.0,0,1.0,0,1.0,0,1.0
51,44,'1',0.02267,0.10894,0.0131627,131.1,131.1,131.1,0.0,0.0,0.0,0.0,1,1,19.98,1,1.0,0,1.0,0,1.0,0,1.0
51,170,'1',0.02426,0.0917,0.00882048,130.2,130.2,130.2,0.0,0.0,0.0,0.0,1,1,14.58,1,1.0,0,1.0,0,1.0,0,1.0
52,53,'1',0.00029,0.00109,0.0,345.0,345.0,345.0,0.0,0.0,0.0,0.0,1,1,0.0,1,1.0,0,1.0,0,1.0,0,1.0
52,55,'1',0.00629,0.02698,0.0042021,131.9,131.9,131.9,0.0,0.0,0.0,0.0,1,1,7.28,1,1.0,0,1.0,0,1.0,0,1.0
52,110,'1',0.00679,0.03422,0.0132367,159.2,159.2,159.2,0.0,0.0,0.0,0.0,1,1,11.84,1,1.0,0,1.0,0,1.0,0,1.0
54,55,'1',0.0098,0.0467,0.00331991,142.9,142.9,142.9,0.0,0.0,0.0,0.0,1,1,9.0,1,1.0,0,1.0,0,1.0,0,1.0
55,56,'1',0.00028,0.00117,0.0,138.0,138.0,138.0,0.0,0.0,0.0,0.0,1,1,0.0,1,1.0,0,1.0,0,1.0,0,1.0
57,61,'1',0.00511,0.02077,0.00131722,132.8,132.8,132.8,0.0,0.0,0.0,0.0,1,1,3.51,1,1.0,0,1.0,0,1.0,0,1.0
58,57,'1',0.00356,0.0171,0.00130718,130.9,130.9,130.9,0.0,0.0,0.0,0.0,1,1,3.36,1,1.0,0,1.0,0,1.0,0,1.0
58,61,'1',0.00679,0.02648,0.00277935,135.6,135.6,135.6,0.0,0.0,0.0,0.0,1,1,5.64,1,1.0,0,1.0,0,1.0,0,1.0
59,60,'1',0.00025,0.00112,0.0,138.0,138.0,138.0,0.0,0.0,0.0,0.0,1,1,0.0,1,1.0,0,1.0,0,1.0,0,1.0
59,85,'1',0.00798,0.0323,0.00500886,159.9,159.9,159.9,0.0,0.0,0.0,0.0,1,1,7.89,1,1.0,0,1.0,0,1.0,0,1.0
62,64,'1',0.00811,0.03542,0.00461657,183.2,183.2,183.2,0.0,0.0,0.0,0.0,1,1,6.52,1,1.0,0,1.0,0,1.0,0,1.0
62,67,'1',0.00468,0.015,0.00159608,181.4,181.4,181.4,0.0,0.0,0.0,0.0,1,1,3.4,1,1.0,0,1.0,0,1.0,0,1.0
63,65,'1',0.00224,0.01997,0.01849,623.5,623.5,623.5,0.0,0.0,0.0,0.0,1,1,13.15,1,1.0,0,1.0,0,1.0,0,1.0
65,530,'1',0.00224,0.01667,0.012,627.6,627.6,627.6,0.0,0.0,0.0,0.0,1,1,9.52,1,1.0,0,1.0,0,1.0,0,1.0
66,61,'1',0.00458,0.02094,0.00227466,172.6,172.6,172.6,0.0,0.0,0.0,0.0,1,1,3.8,1,1.0,0,1.0,0,1.0,0,1.0
67,66,'1',0.00674,0.02888,0.00147694,187.8,187.8,187.8,0.0,0.0,0.0,0.0,1,1,4.26,1,1.0,0,1.0,0,1.0,0,1.0
68,73,'1',0.04686,0.19537,0.0222273,191.8,191.8,191.8,0.0,0.0,0.0,0.0,1,1,35.21,1,1.0,0,1.0,0,1.0,0,1.0
68,471,'1',0.01262,0.0545,0.0216924,177.0,177.0,177.0,0.0,0.0,0.0,0.0,1,1,19.02,1,1.0,0,1.0,0,1.0,0,1.0
68,472,'1',0.03847,0.19361,0.0183595,155.9,155.9,155.9,0.0,0.0,0.0,0.0,1,1,32.49,1,1.0,0,1.0,0,1.0,0,1.0
70,69,'1',0.01291,0.05157,0.010614,156.2,156.2,156.2,0.0,0.0,0.0,0.0,1,1,12.89,1,1.0,0,1.0,0,1.0,0,1.0
71,84,'1',0.00429,0.03775,0.07263,484.9,484.9,484.9,0.0,0.0,0.0,0.0,1,1,27.38,1,1.0,0,1.0,0,1.0,0,1.0
72,69,'1',0.01072,0.03788,0.00372685,160.4,160.4,160.4,0.0,0.0,0.0,0.0,1,1,7.78,1,1.0,0,1.0,0,1.0,0,1.0
74,110,'1',0.01262,0.05479,0.0361386,197.9,197.9,197.9,0.0,0.0,0.0,0.0,1,1,24.29,1,1.0,0,1.0,0,1.0,0,1.0
74,330,'1',0.00716,0.02949,0.0220023,194.8,194.8,194.8,0.0,0.0,0.0,0.0,1,1,14.41,1,1.0,0,1.0,0,1.0,0,1.0
75,76,'1',0.00662,0.0249,0.00669012,176.3,176.3,176.3,0.0,0.0,0.0,0.0,1,1,9.05,1,1.0,0,1.0,0,1.0,0,1.0
76,102,'1',0.02281,0.09822,0.0116939,156.8,156.8,156.8,0.0,0.0,0.0,0.0,1,1,17.96,1,1.0,0,1.0,0,1.0,0,1.0
77,88,'1',0.00508,0.02199,0.00243196,170.6,170.6,170.6,0.0,0.0,0.0,0.0,1,1,4.71,1,1.0,0,1.0,0,1.0,0,1.0
77,93,'1',0.00705,0.03549,0.00287156,187.8,187.8,187.8,0.0,0.0,0.0,0.0,1,1,6.37,1,1.0,0,1.0,0,1.0,0,1.0
78,100,'1',0.01593,0.05231,0.00282424,179.6,179.6,179.6,0.0,0.0,0.0,0.0,1,1,7.74,1,1.0,0,1.0,0,1.0,0,1.0
79,82,'1',0.00244,0.01243,0.000980115,152.5,152.5,152.5,0.0,0.0,0.0,0.0,1,1,2.52,1,1.0,0,1.0,0,1.0,0,1.0
79,92,'1',0.00237,0.00812,0.00259672,135.2,135.2,135.2,0.0,0.0,0.0,0.0,1,1,2.77,1,1.0,0,1.0,0,1.0,0,1.0
80,81,'1',0.00268,0.01263,0.00257851,140.0,140.0,140.0,0.0,0.0,0.0,0.0,1,1,3.88,1,1.0,0,1.0,0,1.0,0,1.0
80,100,'1',0.00842,0.03095,0.00160187,151.8,151.8,151.8,0.0,0.0,0.0,0.0,1,1,4.49,1,1.0,0,1.0,0,1.0,0,1.0
81,349,'1',0.02419,0.12919,0.0110243,159.9,159.9,159.9,0.0,0.0,0.0,0.0,1,1,19.4,1,1.0,0,1.0,0,1.0,0,1.0
82,88,'1',0.0063,0.02539,0.00135712,179.7,179.7,179.7,0.0,0.0,0.0,0.0,1,1,4.07,1,1.0,0,1.0,0,1.0,0,1.0
83,524,'1',0.00174,0.01353,0.088269,450.0,450.0,450.0,0.0,0.0,0.0,0.0,1,1,20.16,1,1.0,0,1.0,0,1.0,0,1.0
84,63,'1',0.00159,0.01303,0.05518,572.4,572.4,572.4,0.0,0.0,0.0,0.0,1,1,14.14,1,1.0,0,1.0,0,1.0,0,1.0
84,83,'1',0.0001,0.001,0.0,976.9,976.9,976.9,0.0,0.0,0.0,0.0,1,1,0.0,1,1.0,0,1.0,0,1.0,0,1.0
84,98,'1',0.00269,0.02403,0.03053,567.0,567.0,567.0,0.0,0.0,0.0,0.0,1,1,14.77,1,1.0,0,1.0,0,1.0,0,1.0
85,86,'1',0.0,0.001,0.0,138.0,138.0,138.0,0.0,0.0,0.0,0.0,1,1,0.0,1,1.0,0,1.0,0,1.0,0,1.0
86,59,'1',0.00798,0.0323,0.0,159.9,159.9,159.9,0.0,0.0,0.0,0.0,1,1,0.0,1,1.0,0,1.0,0,1.0,0,1.0
87,59,'1',0.01058,0.04542,0.0032538,164.1,164.1,164.1,0.0,0.0,0.0,0.0,1,1,7.53,1,1.0,0,1.0,0,1.0,0,1.0
88,95,'1',0.00271,0.01301,0.0242552,196.1,196.1,196.1,0.0,0.0,0.0,0.0,1,1,11.28,1,1.0,0,1.0,0,1.0,0,1.0
89,78,'1',0.00386,0.02052,0.00268545,175.0,175.0,175.0,0.0,0.0,0.0,0.0,1,1,4.38,1,1.0,0,1.0,0,1.0,0,1.0
89,90,'1',0.00025,0.00117,0.0,345.0,345.0,345.0,0.0,0.0,0.0,0.0,1,1,0.0,1,1.0,0,1.0,0,1.0,0,1.0
89,92,'1',0.00615,0.02921,0.00197214,166.3,166.3,166.3,0.0,0.0,0.0,0.0,1,1,5.2,1,1.0,0,1.0,0,1.0,0,1.0
91,92,'1',0.00028,0.00111,0.0,345.0,345.0,345.0,0.0,0.0,0.0,0.0,1,1,0.0,1,1.0,0,1.0,0,1.0,0,1.0
92,82,'1',0.00641,0.02942,0.00179114,137.8,137.8,137.8,0.0,0.0,0.0,0.0,1,1,4.7,1,1.0,0,1.0,0,1.0,0,1.0
93,62,'1',0.00315,0.01468,0.00484905,204.8,204.8,204.8,0.0,0.0,0.0,0.0,1,1,5.66,1,1.0,0,1.0,0,1.0,0,1.0
94,81,'1',0.00419,0.01847,0.00357257,139.0,139.0,139.0,0.0,0.0,0.0,0.0,1,1,4.58,1,1.0,0,1.0,0,1.0,0,1.0
94,97,'1',0.00562,0.02693,0.00283582,140.9,140.9,140.9,0.0,0.0,0.0,0.0,1,1,5.65,1,1.0,0,1.0,0,1.0,0,1.0
95,97,'1',0.00629,0.02576,0.00267911,151.3,151.3,151.3,0.0,0.0,0.0,0.0,1,1,5.57,1,1.0,0,1.0,0,1.0,0,1.0
96,97,'1',0.00029,0.00102,0.0,138.0,138.0,138.0,0.0,0.0,0.0,0.0,1,1,0.0,1,1.0,0,1.0,0,1.0,0,1.0
97,75,'1',0.00878,0.04723,0.00390476,172.9,172.9,172.9,0.0,0.0,0.0,0.0,1,1,7.88,1,1.0,0,1.0,0,1.0,0,1.0
98,99,'1',0.0,0.001,0.0,690.0,690.0,690.0,0.0,0.0,0.0,0.0,1,1,0.0,1,1.0,0,1.0,0,1.0,0,1.0
98,101,'1',0.00021,0.00107,0.0,368.0,368.0,368.0,0.0,0.0,0.0,0.0,1,1,0.0,1,1.0,0,1.0,0,1.0,0,1.0
100,95,'1',0.00302,0.01382,0.00118423,184.5,184.5,184.5,0.0,0.0,0.0,0.0,1,1,2.71,1,1.0,0,1.0,0,1.0,0,1.0
103,98,'1',0.00297,0.03001,0.11778,532.9,532.9,532.9,0.0,0.0,0.0,0.0,1,1,32.53,1,1.0,0,1.0,0,1.0,0,1.0
103,512,'1',0.00416,0.03757,0.08796,587.2,587.2,587.2,0.0,0.0,0.0,0.0,1,1,32.09,1,1.0,0,1.0,0,1.0,0,1.0
103,613,'1',0.00392,0.03887,0.04656,529.0,529.0,529.0,0.0,0.0,0.0,0.0,1,1,24.27,1,1.0,0,1.0,0,1.0,0,1.0
104,102,'1',0.00675,0.03017,0.00293825,160.6,160.6,160.6,0.0,0.0,0.0,0.0,1,1,5.87,1,1.0,0,1.0,0,1.0,0,1.0
105,106,'1',0.00022,0.00116,0.0,138.0,138.0,138.0,0.0,0.0,0.0,0.0,1,1,0.0,1,1.0,0,1.0,0,1.0,0,1.0
106,58,'1',0.00702,0.04235,0.00478469,173.5,173.5,173.5,0.0,0.0,0.0,0.0,1,1,8.85,1,1.0,0,1.0,0,1.0,0,1.0
107,534,'1',0.04439,0.15936,0.0375771,161.7,161.7,161.7,0.0,0.0,0.0,0.0,1,1,41.27,1,1.0,0,1.0,0,1.0,0,1.0
108,463,'1',0.01303,0.05543,0.00594623,150.4,150.4,150.4,0.0,0.0,0.0,0.0,1,1,12.25,1,1.0,0,1.0,0,1.0,0,1.0
109,107,'1',0.0071,0.03082,0.00727123,128.3,128.3,128.3,0.0,0.0,0.0,0.0,1,1,8.86,1,1.0,0,1.0,0,1.0,0,1.0
109,117,'1',0.0133,0.06028,0.00504104,150.4,150.4,150.4,0.0,0.0,0.0,0.0,1,1,10.65,1,1.0,0,1.0,0,1.0,0,1.0
109,249,'1',0.04327,0.21711,0.0150087,142.2,142.2,142.2,0.0,0.0,0.0,0.0,1,1,31.13,1,1.0,0,1.0,0,1.0,0,1.0
110,111,'1',0.00881,0.03152,0.0549835,204.0,204.0,204.0,0.0,0.0,0.0,0.0,1,1,22.35,1,1.0,0,1.0,0,1.0,0,1.0
111,261,'1',0.03907,0.19534,0.0157237,135.9,135.9,135.9,0.0,0.0,0.0,0.0,1,1,30.39,1,1.0,0,1.0,0,1.0,0,1.0
112,73,'1',0.01206,0.0635,0.00756139,187.3,187.3,187.3,0.0,0.0,0.0,0.0,1,1,12.0,1,1.0,0,1.0,0,1.0,0,1.0
112,115,'1',0.00297,0.01737,0.00310543,172.2,172.2,172.2,0.0,0.0,0.0,0.0,1,1,4.69,1,1.0,0,1.0,0,1.0,0,1.0
113,115,'1',0.01381,0.04348,0.00259903,170.2,170.2,170.2,0.0,0.0,0.0,0.0,1,1,6.41,1,1.0,0,1.0,0,1.0,0,1.0
113,373,'1',0.01154,0.06572,0.00222828,164.9,164.9,164.9,0.0,0.0,0.0,0.0,1,1,8.51,1,1.0,0,1.0,0,1.0,0,1.0
114,115,'1',0.00024,0.00117,0.0,345.0,345.0,345.0,0.0,0.0,0.0,0.0,1,1,0.0,1,1.0,0,1.0,0,1.0,0,1.0
116,112,'1',0.02795,0.09056,0.00408775,119.4,119.4,119.4,0.0,0.0,0.0,0.0,1,1,11.44,1,1.0,0,1.0,0,1.0,0,1.0
116,115,'1',0.01108,0.05171,0.00730987,100.8,100.8,100.8,0.0,0.0,0.0,0.0,1,1,12.44,1,1.0,0,1.0,0,1.0,0,1.0
117,616,'1',0.00285,0.01589,0.00712197,153.9,153.9,153.9,0.0,0.0,0.0,0.0,1,1,7.08,1,1.0,0,1.0,0,1.0,0,1.0
118,106,'1',0.01139,0.05676,0.00719749,178.7,178.7,178.7,0.0,0.0,0.0,0.0,1,1,12.94,1,1.0,0,1.0,0,1.0,0,1.0
119,70,'1',0.02097,0.09364,0.022184,146.7,146.7,146.7,0.0,0.0,0.0,0.0,1,1,24.67,1,1.0,0,1.0,0,1.0,0,1.0
119,120,'1',0.00419,0.02113,0.00554025,148.5,148.5,148.5,0.0,0.0,0.0,0.0,1,1,7.18,1,1.0,0,1.0,0,1.0,0,1.0
119,133,'1',0.01573,0.07063,0.00986915,103.5,103.5,103.5,0.0,0.0,0.0,0.0,1,1,14.95,1,1.0,0,1.0,0,1.0,0,1.0
120,121,'1',0.01609,0.07601,0.00787361,163.5,163.5,163.5,0.0,0.0,0.0,0.0,1,1,13.51,1,1.0,0,1.0,0,1.0,0,1.0
120,133,'1',0.01978,0.09754,0.0141865,121.5,121.5,121.5,0.0,0.0,0.0,0.0,1,1,19.18,1,1.0,0,1.0,0,1.0,0,1.0
121,154,'1',0.01452,0.05895,0.0103776,169.9,169.9,169.9,0.0,0.0,0.0,0.0,1,1,13.44,1,1.0,0,1.0,0,1.0,0,1.0
122,124,'1',0.00027,0.00107,0.0,690.0,690.0,690.0,0.0,0.0,0.0,0.0,1,1,0.0,1,1.0,0,1.0,0,1.0,0,1.0
123,39,'1',0.01755,0.07489,0.0160687,145.4,145.4,145.4,0.0,0.0,0.0,0.0,1,1,18.49,1,1.0,0,1.0,0,1.0,0,1.0
125,33,'1',0.08644,0.32874,0.0286887,159.1,159.1,159.1,0.0,0.0,0.0,0.0,1,1,51.2,1,1.0,0,1.0,0,1.0,0,1.0
125,140,'1',0.01322,0.04697,0.0113233,145.3,145.3,145.3,0.0,0.0,0.0,0.0,1,1,13.01,1,1.0,0,1.0,0,1.0,0,1.0
126,128,'1',0.05475,0.21697,0.036362,156.0,156.0,156.0,0.0,0.0,0.0,0.0,1,1,46.06,1,1.0,0,1.0,0,1.0,0,1.0
126,137,'1',0.01927,0.08931,0.0087913,130.7,130.7,130.7,0.0,0.0,0.0,0.0,1,1,15.66,1,1.0,0,1.0,0,1.0,0,1.0
126,138,'1',0.03653,0.15094,0.0217753,151.5,151.5,151.5,0.0,0.0,0.0,0.0,1,1,30.61,1,1.0,0,1.0,0,1.0,0,1.0
126,139,'1',0.03657,0.17579,0.0287401,140.6,140.6,140.6,0.0,0.0,0.0,0.0,1,1,38.39,1,1.0,0,1.0,0,1.0,0,1.0
126,147,'1',0.01795,0.07646,0.0191246,128.4,128.4,128.4,0.0,0.0,0.0,0.0,1,1,21.25,1,1.0,0,1.0,0,1.0,0,1.0
127,118,'1',0.007,0.02635,0.00514737,173.7,173.7,173.7,0.0,0.0,0.0,0.0,1,1,7.64,1,1.0,0,1.0,0,1.0,0,1.0
127,131,'1',0.01735,0.08945,0.0177005,165.3,165.3,165.3,0.0,0.0,0.0,0.0,1,1,22.27,1,1.0,0,1.0,0,1.0,0,1.0
128,118,'1',0.01773,0.04454,0.00829303,149.5,149.5,149.5,0.0,0.0,0.0,0.0,1,1,11.53,1,1.0,0,1.0,0,1.0,0,1.0
128,129,'1',0.00028,0.00106,0.0,138.0,138.0,138.0,0.0,0.0,0.0,0.0,1,1,0.0,1,1.0,0,1.0,0,1.0,0,1.0
130,131,'1',0.01691,0.06574,0.00697598,148.7,148.7,148.7,0.0,0.0,0.0,0.0,1,1,11.29,1,1.0,0,1.0,0,1.0,0,1.0
131,475,'1',0.0716,0.32698,0.0186167,153.4,153.4,153.4,0.0,0.0,0.0,0.0,1,1,42.46,1,1.0,0,1.0,0,1.0,0,1.0
134,136,'1',0.00026,0.00112,0.0,690.0,690.0,690.0,0.0,0.0,0.0,0.0,1,1,0.0,1,1.0,0,1.0,0,1.0,0,1.0
135,137,'1',0.05863,0.22774,0.0259399,136.8,136.8,136.8,0.0,0.0,0.0,0.0,1,1,40.94,1,1.0,0,1.0,0,1.0,0,1.0
135,145,'1',0.02729,0.1088,0.0387169,179.1,179.1,179.1,0.0,0.0,0.0,0.0,1,1,33.9,1,1.0,0,1.0,0,1.0,0,1.0
137,151,'1',0.01734,0.06356,0.0178476,125.5,125.5,125.5,0.0,0.0,0.0,0.0,1,1,18.97,1,1.0,0,1.0,0,1.0,0,1.0
138,561,'1',0.00494,0.02121,0.00176502,158.9,158.9,158.9,0.0,0.0,0.0,0.0,1,1,4.38,1,1.0,0,1.0,0,1.0,0,1.0
139,561,'1',0.01495,0.06824,0.00475223,146.7,146.7,146.7,0.0,0.0,0.0,0.0,1,1,10.27,1,1.0,0,1.0,0,1.0,0,1.0
141,144,'1',0.00027,0.00106,0.0,1000.0,1000.0,1000.0,0.0,0.0,0.0,0.0,1,1,0.0,1,1.0,0,1.0,0,1.0,0,1.0
142,141,'1',0.0001,0.001,0.0,782.8,782.8,782.8,0.0,0.0,0.0,0.0,1,1,0.0,1,1.0,0,1.0,0,1.0,0,1.0
142,153,'1',0.00142,0.01154,0.03236,609.3,609.3,609.3,0.0,0.0,0.0,0.0,1,1,11.79,1,1.0,0,1.0,0,1.0,0,1.0
143,151,'1',0.00479,0.01793,0.00234704,169.0,169.0,169.0,0.0,0.0,0.0,0.0,1,1,4.34,1,1.0,0,1.0,0,1.0,0,1.0
144,600,'1',0.00096,0.00828,0.0557702,530.1,530.1,530.1,0.0,0.0,0.0,0.0,1,1,12.2,1,1.0,0,1.0,0,1.0,0,1.0
145,146,'1',0.00022,0.0011,0.0,345.0,345.0,345.0,0.0,0.0,0.0,0.0,1,1,0.0,1,1.0,0,1.0,0,1.0,0,1.0
145,157,'1',0.01243,0.04954,0.00505538,160.1,160.1,160.1,0.0,0.0,0.0,0.0,1,1,9.75,1,1.0,0,1.0,0,1.0,0,1.0
147,132,'1',0.00809,0.03748,0.00657427,159.9,159.9,159.9,0.0,0.0,0.0,0.0,1,1,9.91,1,1.0,0,1.0,0,1.0,0,1.0
147,468,'1',0.02658,0.14365,0.0196622,155.0,155.0,155.0,0.0,0.0,0.0,0.0,1,1,27.69,1,1.0,0,1.0,0,1.0,0,1.0
148,151,'1',0.0037,0.02019,0.00271169,205.1,205.1,205.1,0.0,0.0,0.0,0.0,1,1,4.8,1,1.0,0,1.0,0,1.0,0,1.0
149,65,'1',0.00472,0.04493,0.08558,629.3,629.3,629.3,0.0,0.0,0.0,0.0,1,1,32.22,1,1.0,0,1.0,0,1.0,0,1.0
149,142,'1',0.00229,0.02196,0.01927,574.1,574.1,574.1,0.0,0.0,0.0,0.0,1,1,11.54,1,1.0,0,1.0,0,1.0,0,1.0
149,601,'1',0.00151,0.01543,0.03688,631.2,631.2,631.2,0.0,0.0,0.0,0.0,1,1,12.75,1,1.0,0,1.0,0,1.0,0,1.0
151,147,'1',0.00664,0.02439,0.00209727,171.8,171.8,171.8,0.0,0.0,0.0,0.0,1,1,4.81,1,1.0,0,1.0,0,1.0,0,1.0
152,150,'1',0.00627,0.03057,0.00174303,167.5,167.5,167.5,0.0,0.0,0.0,0.0,1,1,5.1,1,1.0,0,1.0,0,1.0,0,1.0
152,158,'1',0.00728,0.0316,0.00698247,157.8,157.8,157.8,0.0,0.0,0.0,0.0,1,1,9.51,1,1.0,0,1.0,0,1.0,0,1.0
154,159,'1',0.00373,0.01636,0.00296753,195.7,195.7,195.7,0.0,0.0,0.0,0.0,1,1,4.11,1,1.0,0,1.0,0,1.0,0,1.0
155,154,'1',0.00292,0.01533,0.00182946,162.2,162.2,162.2,0.0,0.0,0.0,0.0,1,1,3.59,1,1.0,0,1.0,0,1.0,0,1.0
155,156,'1',0.00024,0.00108,0.0,138.0,138.0,138.0,0.0,0.0,0.0,0.0,1,1,0.0,1,1.0,0,1.0,0,1.0,0,1.0
155,157,'1',0.00467,0.02837,0.00325531,150.6,150.6,150.6,0.0,0.0,0.0,0.0,1,1,5.54,1,1.0,0,1.0,0,1.0,0,1.0
158,127,'1',0.00631,0.03374,0.00724037,174.5,174.5,174.5,0.0,0.0,0.0,0.0,1,1,10.72,1,1.0,0,1.0,0,1.0,0,1.0
158,150,'1',0.0044,0.02608,0.00300947,172.2,172.2,172.2,0.0,0.0,0.0,0.0,1,1,5.9,1,1.0,0,1.0,0,1.0,0,1.0
159,161,'1',0.00443,0.02192,0.00370592,169.3,169.3,169.3,0.0,0.0,0.0,0.0,1,1,5.29,1,1.0,0,1.0,0,1.0,0,1.0
159,162,'1',0.0135,0.05937,0.00287526,139.9,139.9,139.9,0.0,0.0,0.0,0.0,1,1,8.58,1,1.0,0,1.0,0,1.0,0,1.0
160,148,'1',0.00531,0.02513,0.0026326,196.0,196.0,196.0,0.0,0.0,0.0,0.0,1,1,4.7,1,1.0,0,1.0,0,1.0,0,1.0
160,161,'1',0.00372,0.01524,0.00230268,179.6,179.6,179.6,0.0,0.0,0.0,0.0,1,1,4.67,1,1.0,0,1.0,0,1.0,0,1.0
161,162,'1',0.00732,0.03622,0.00247326,125.2,125.2,125.2,0.0,0.0,0.0,0.0,1,1,5.62,1,1.0,0,1.0,0,1.0,0,1.0
162,163,'1',0.00022,0.00105,0.0,345.0,345.0,345.0,0.0,0.0,0.0,0.0,1,1,0.0,1,1.0,0,1.0,0,1.0,0,1.0
164,167,'1',0.00427,0.01559,0.00148194,170.7,170.7,170.7,0.0,0.0,0.0,0.0,1,1,3.58,1,1.0,0,1.0,0,1.0,0,1.0
164,171,'1',0.01079,0.04997,0.00357652,133.5,133.5,133.5,0.0,0.0,0.0,0.0,1,1,9.4,1,1.0,0,1.0,0,1.0,0,1.0
166,165,'1',0.0001,0.001,0.0,670.3,670.3,670.3,0.0,0.0,0.0,0.0,1,1,0.0,1,1.0,0,1.0,0,1.0,0,1.0
166,168,'1',0.00029,0.00111,0.0,690.0,690.0,690.0,0.0,0.0,0.0,0.0,1,1,0.0,1,1.0,0,1.0,0,1.0,0,1.0
168,613,'1',0.00619,0.05051,0.14414,516.4,516.4,516.4,0.0,0.0,0.0,0.0,1,1,47.47,1,1.0,0,1.0,0,1.0,0,1.0
169,170,'1',0.00027,0.00109,0.0,138.0,138.0,138.0,0.0,0.0,0.0,0.0,1,1,0.0,1,1.0,0,1.0,0,1.0,0,1.0
170,164,'1',0.0076,0.04174,0.00959522,151.9,151.9,151.9,0.0,0.0,0.0,0.0,1,1,12.86,1,1.0,0,1.0,0,1.0,0,1.0
171,167,'1',0.01426,0.05872,0.00459238,158.9,158.9,158.9,0.0,0.0,0.0,0.0,1,1,11.63,1,1.0,0,1.0,0,1.0,0,1.0
171,172,'1',0.0161,0.05981,0.0157339,125.0,125.0,125.0,0.0,0.0,0.0,0.0,1,1,16.61,1,1.0,0,1.0,0,1.0,0,1.0
172,43,'1',0.03117,0.13925,0.0111651,157.5,157.5,157.5,0.0,0.0,0.0,0.0,1,1,21.34,1,1.0,0,1.0,0,1.0,0,1.0
...
0 / END OF BRANCH DATA BEGIN TRANSFORMER DATA
9,8,0,'1',1,1,1,0.0,0.0,2,'            ',1,1,1.0,0,1.0,0,1.0,0,1.0,'            '
0.00183,0.06646,100.0
1.0,115.0,0.0,181.7,181.7,181.7,0,8,1.1,0.9,1.01,0.99,33,0,0.0,0.0,0.0
1.0,230.0
14,13,0,'1',1,1,1,0.0,0.0,2,'            ',1,1,1.0,0,1.0,0,1.0,0,1.0,'            '
0.0012,0.05438,100.0
1.0,115.0,0.0,244.1,244.1,244.1,0,13,1.1,0.9,1.01,0.99,33,0,0.0,0.0,0.0
1.0,230.0
21,20,0,'1',1,1,1,0.0,0.0,2,'            ',1,1,1.0,0,1.0,0,1.0,0,1.0,'            '
0.00195,0.08874,100.0
1.0,115.0,0.0,160.1,160.1,160.1,0,20,1.1,0.9,1.01,0.99,33,0,0.0,0.0,0.0
1.0,230.0
38,37,0,'1',1,1,1,0.0,0.0,2,'            ',1,1,1.0,0,1.0,0,1.0,0,1.0,'            '
0.00139,0.05436,100.0
1.0,115.0,0.0,145.6,145.6,145.6,0,37,1.1,0.9,1.01,0.99,33,0,0.0,0.0,0.0
1.0,230.0
48,47,0,'1',1,1,1,0.0,0.0,2,'            ',1,1,1.0,0,1.0,0,1.0,0,1.0,'            '
0.00097,0.03629,100.0
1.0,115.0,0.0,177.0,177.0,177.0,0,47,1.1,0.9,1.01,0.99,33,0,0.0,0.0,0.0
1.0,230.0
64,63,0,'1',1,1,1,0.0,0.0,2,'            ',1,1,1.0,0,1.0,0,1.0,0,1.0,'            '
0.00164,0.06974,100.0
1.0,115.0,0.0,244.6,244.6,244.6,0,63,1.1,0.9,1.01,0.99,33,0,0.0,0.0,0.0
1.0,230.0
66,65,0,'1',1,1,1,0.0,0.0,2,'            ',1,1,1.0,0,1.0,0,1.0,0,1.0,'            '
0.0012,0.05508,100.0
1.0,115.0,-6.0,271.1,271.1,271.1,-3,65,30.0,-30.0,101.0,99.0,31,29,0.0,0.0,0.0
1.0,230.0
72,71,0,'1',1,1,1,0.0,0.0,2,'            ',1,1,1.0,0,1.0,0,1.0,0,1.0,'            '
0.00097,0.04679,100.0
1.0,115.0,0.0,140.7,140.7,140.7,0,71,1.1,0.9,1.01,0.99,33,0,0.0,0.0,0.0
1.0,230.0
84,86,0,'1',1,1,1,0.0,0.0,2,'            ',1,1,1.0,0,1.0,0,1.0,0,1.0,'            '
0.00143,0.07416,100.0
1.0,230.0,0.0,235.4,235.4,235.4,0,0,1.5,0.51,1.5,0.51,159,0,0.0,0.0,0.0
1.0,115.0
85,84,0,'1',1,1,1,0.0,0.0,2,'            ',1,1,1.0,0,1.0,0,1.0,0,1.0,'            '
0.00143,0.07416,100.0
1.0,115.0,0.0,235.4,235.4,235.4,0,84,1.1,0.9,1.01,0.99,33,0,0.0,0.0,0.0
1.0,230.0
100,98,0,'1',1,1,1,0.0,0.0,2,'            ',1,1,1.0,0,1.0,0,1.0,0,1.0,'            '
0.00223,0.0832,100.0
1.0,115.0,0.0,263.8,263.8,263.8,0,98,1.1,0.9,1.01,0.99,33,0,0.0,0.0,0.0
1.0,230.0
104,103,0,'1',1,1,1,0.0,0.0,2,'            ',1,1,1.0,0,1.0,0,1.0,0,1.0,'            '
0.00119,0.05827,100.0
1.0,115.0,0.0,180.2,180.2,180.2,0,103,1.1,0.9,1.01,0.99,33,0,0.0,0.0,0.0
1.0,230.0
123,122,0,'1',1,1,1,0.0,0.0,2,'            ',1,1,1.0,0,1.0,0,1.0,0,1.0,'            '
0.0012,0.06691,100.0
1.0,115.0,0.0,112.2,112.2,112.2,0,122,1.1,0.9,1.01,0.99,33,0,0.0,0.0,0.0
1.0,230.0
135,134,0,'1',1,1,1,0.0,0.0,2,'            ',1,1,1.0,0,1.0,0,1.0,0,1.0,'            '
0.00143,0.07303,100.0
1.0,115.0,0.0,179.6,179.6,179.6,0,134,1.1,0.9,1.01,0.99,33,0,0.0,0.0,0.0
1.0,230.0
143,142,0,'1',1,1,1,0.0,0.0,2,'            ',1,1,1.0,0,1.0,0,1.0,0,1.0,'            '
0.00147,0.05981,100.0
1.0,115.0,0.0,216.5,216.5,216.5,0,142,1.1,0.9,1.01,0.99,33,0,0.0,0.0,0.0
1.0,230.0
150,149,0,'1',1,1,1,0.0,0.0,2,'            ',1,1,1.0,0,1.0,0,1.0,0,1.0,'            '
0.00098,0.04276,100.0
1.0,115.0,0.0,269.6,269.6,269.6,0,149,1.1,0.9,1.01,0.99,33,0,0.0,0.0,0.0
1.0,230.0
154,153,0,'1',1,1,1,0.0,0.0,2,'            ',1,1,1.0,0,1.0,0,1.0,0,1.0,'            '
0.00117,0.05409,100.0
1.0,115.0,0.0,277.3,277.3,277.3,0,153,1.1,0.9,1.01,0.99,33,0,0.0,0.0,0.0
1.0,230.0
154,153,0,'2',1,1,1,0.0,0.0,2,'            ',1,1,1.0,0,1.0,0,1.0,0,1.0,'            '
0.00117,0.05409,100.0
1.0,115.0,0.0,277.3,277.3,277.3,0,153,1.1,0.9,1.01,0.99,33,0,0.0,0.0,0.0
1.0,230.0
167,166,0,'1',1,1,1,0.0,0.0,2,'            ',1,1,1.0,0,1.0,0,1.0,0,1.0,'            '
0.00141,0.05505,100.0
1.0,115.0,0.0,224.3,224.3,224.3,0,166,1.1,0.9,1.01,0.99,33,0,0.0,0.0,0.0
1.0,230.0
187,186,0,'1',1,1,1,0.0,0.0,2,'            ',1,1,1.0,0,1.0,0,1.0,0,1.0,'            '
0.00068,0.03758,100.0
1.0,115.0,0.0,270.9,270.9,270.9,0,186,1.1,0.9,1.01,0.99,33,0,0.0,0.0,0.0
1.0,230.0
203,201,0,'1',1,1,1,0.0,0.0,2,'            ',1,1,1.0,0,1.0,0,1.0,0,1.0,'            '
0.00141,0.05973,100.0
1.0,115.0,0.0,206.4,206.4,206.4,0,201,1.1,0.9,1.01,0.99,33,0,0.0,0.0,0.0
1.0,230.0
210,209,0,'1',1,1,1,0.0,0.0,2,'            ',1,1,1.0,0,1.0,0,1.0,0,1.0,'            '
0.00136,0.06915,100.0
1.0,115.0,0.0,220.4,220.4,220.4,0,209,1.1,0.9,1.01,0.99,33,0,0.0,0.0,0.0
1.0,230.0
212,211,0,'1',1,1,1,0.0,0.0,2,'            ',1,1,1.0,0,1.0,0,1.0,0,1.0,'            '
0.0019,0.07828,100.0
1.0,115.0,0.0,208.6,208.6,208.6,0,211,1.1,0.9,1.01,0.99,33,0,0.0,0.0,0.0
1.0,230.0
217,216,0,'1',1,1,1,0.0,0.0,2,'            ',1,1,1.0,0,1.0,0,1.0,0,1.0,'            '
0.0007,0.03192,100.0
1.0,115.0,0.0,241.9,241.9,241.9,0,216,1.1,0.9,1.01,0.99,33,0,0.0,0.0,0.0
1.0,230.0
231,230,0,'1',1,1,1,0.0,0.0,2,'            ',1,1,1.0,0,1.0,0,1.0,0,1.0,'            '
0.00138,0.05366,100.0
1.0,115.0,0.0,230.5,230.5,230.5,0,230,1.1,0.9,1.01,0.99,33,0,0.0,0.0,0.0
1.0,230.0
235,234,0,'1',1,1,1,0.0,0.0,2,'            ',1,1,1.0,0,1.0,0,1.0,0,1.0,'            '
0.00141,0.06492,100.0
1.0,115.0,0.0,228.2,228.2,228.2,0,234,1.1,0.9,1.01,0.99,33,0,0.0,0.0,0.0
1.0,230.0
259,258,0,'1',1,1,1,0.0,0.0,2,'            ',1,1,1.0,0,1.0,0,1.0,0,1.0,'            '
0.00136,0.05904,100.0
1.0,115.0,0.0,202.7,202.7,202.7,0,258,1.1,0.9,1.01,0.99,33,0,0.0,0.0,0.0
1.0,230.0
...